gem5 Simulator System.  http://gem5.org
gem5 is copyrighted software; use the --copyright option for details.

gem5 compiled May  3 2020 13:47:58
gem5 started May  3 2020 14:31:10
gem5 executing on padthai.ece.local.cmu.edu, pid 247303
command line: build/X86/gem5.opt --debug-flag=AshishBasic configs/learning_gem5/part1/two_level.py my_progs/spectre

Global frequency set at 1000000000000 ticks per second
      0: global: SecBuf : Reset the security buffer
      0: global: SecBuf : Security Buffer Constructed with size= 16
      0: system.cpu: CPU construction starts
      0: system.cpu: CPU Setting secbuf
      0: system.cpu.iew.lsq.thread0: Setting secbuf for the threads
      0: system.cpu: CPU Setting secbuf DONE
      0: system.cpu: CPU construction starts
      0: system.cpu.dcache: Base cache created
      0: system.cpu.dcache: Cache block created
      0: system.cpu.icache: Base cache created
      0: system.cpu.icache: Cache block created
      0: system.l2cache: Base cache created
      0: system.l2cache: Cache block created
Beginning simulation!
      0: system.cpu.icache.cpu_side: Cache : Recv Packet
      0: system.cpu.icache.cpu_side: Recv Packet Non SecBuf Fill SecBufFill = 0, SpeculativeRead = 0
      0: system.cpu.icache.cpu_side: Received Packet Non SecBuf Fill
      0: system.cpu.iew.lsq.thread0: In Writeback store
      0: global: SecBuf : Sec Buf fill pointer reset 0
      0: global: SecBuf : Fill empty
   1000: system.cpu.iew.lsq.thread0: In Writeback store
   1000: global: SecBuf : Sec Buf fill pointer reset 0
   1000: global: SecBuf : Fill empty
   2000: system.cpu.icache: Found a miss for:ReadReq [ec0:eff] IF
   2000: system.l2cache.cpu_side: Cache : Recv Packet
   2000: system.l2cache.cpu_side: Recv Packet Non SecBuf Fill SecBufFill = 0, SpeculativeRead = 0
   2000: system.l2cache.cpu_side: Received Packet Non SecBuf Fill
   2000: system.cpu.icache.cpu_side: Cache : Recv Packet
   2000: system.cpu.icache.cpu_side: Recv Packet Non SecBuf Fill SecBufFill = 0, SpeculativeRead = 0
   2000: system.cpu.icache.cpu_side: Received Packet Non SecBuf Fill
   2000: system.cpu.iew.lsq.thread0: In Writeback store
   2000: global: SecBuf : Sec Buf fill pointer reset 0
   2000: global: SecBuf : Fill empty
   3000: system.cpu.iew.lsq.thread0: In Writeback store
   3000: global: SecBuf : Sec Buf fill pointer reset 0
   3000: global: SecBuf : Fill empty
   4000: system.cpu.iew.lsq.thread0: In Writeback store
   4000: global: SecBuf : Sec Buf fill pointer reset 0
   4000: global: SecBuf : Fill empty
   5000: system.cpu.iew.lsq.thread0: In Writeback store
   5000: global: SecBuf : Sec Buf fill pointer reset 0
   5000: global: SecBuf : Fill empty
   6000: system.cpu.iew.lsq.thread0: In Writeback store
   6000: global: SecBuf : Sec Buf fill pointer reset 0
   6000: global: SecBuf : Fill empty
   7000: system.cpu.iew.lsq.thread0: In Writeback store
   7000: global: SecBuf : Sec Buf fill pointer reset 0
   7000: global: SecBuf : Fill empty
   8000: system.cpu.iew.lsq.thread0: In Writeback store
   8000: global: SecBuf : Sec Buf fill pointer reset 0
   8000: global: SecBuf : Fill empty
   9000: system.cpu.iew.lsq.thread0: In Writeback store
   9000: global: SecBuf : Sec Buf fill pointer reset 0
   9000: global: SecBuf : Fill empty
  10000: system.cpu.iew.lsq.thread0: In Writeback store
  10000: global: SecBuf : Sec Buf fill pointer reset 0
  10000: global: SecBuf : Fill empty
  11000: system.cpu.iew.lsq.thread0: In Writeback store
  11000: global: SecBuf : Sec Buf fill pointer reset 0
  11000: global: SecBuf : Fill empty
  23000: system.l2cache: Found a miss for:ReadSharedReq [ec0:eff] IF
 110000: system.cpu.iew.lsq.thread0: In Writeback store
 110000: global: SecBuf : Sec Buf fill pointer reset 0
 110000: global: SecBuf : Fill empty
 111000: system.cpu.iew.lsq.thread0: In Writeback store
 111000: global: SecBuf : Sec Buf fill pointer reset 0
 111000: global: SecBuf : Fill empty
 112000: system.cpu.iew.lsq.thread0: In Writeback store
 112000: global: SecBuf : Sec Buf fill pointer reset 0
 112000: global: SecBuf : Fill empty
 113000: system.cpu.iew.lsq.thread0: In Writeback store
 113000: global: SecBuf : Sec Buf fill pointer reset 0
 113000: global: SecBuf : Fill empty
 114000: system.cpu.iew.lsq.thread0: In Writeback store
 114000: global: SecBuf : Sec Buf fill pointer reset 0
 114000: global: SecBuf : Fill empty
 115000: global: SecBuf : Security Buffer of size = 16has 0 entries
 115000: system.cpu.iew.lsq.thread0: DeepaliLSQ: Add blank/invalid entry to theSecurity buffer Addr:0xe2e60, data:0xb0 [sn:3] 1 1
 115000: global: SecBuf : Element added [sn:3]
 115000: system.cpu.dcache.cpu_side: Cache : Recv Packet
 115000: system.cpu.dcache.cpu_side: Recv Packet Non SecBuf Fill SecBufFill = 0, SpeculativeRead = 1
 115000: system.cpu.dcache.cpu_side: Received Packet Non SecBuf Fill
 115000: system.cpu.iew.lsq.thread0: send packet
 115000: system.cpu.iew.lsq.thread0: In Writeback store
 115000: global: SecBuf : Sec Buf fill pointer reset 0
 115000: global: SecBuf : Fill empty
 116000: system.cpu.iew.lsq.thread0: In Writeback store
 116000: global: SecBuf : Sec Buf fill pointer reset 0
 116000: global: SecBuf : Fill empty
 117000: system.cpu.dcache: Found a miss for:SpeculativeReadReq [e2e60:e2e67]
 117000: system.l2cache.cpu_side: Cache : Recv Packet
 117000: system.l2cache.cpu_side: Recv Packet Non SecBuf Fill SecBufFill = 0, SpeculativeRead = 0
 117000: system.l2cache.cpu_side: Received Packet Non SecBuf Fill
 117000: system.cpu.iew.lsq.thread0: In Writeback store
 117000: global: SecBuf : Sec Buf fill pointer reset 0
 117000: global: SecBuf : Fill empty
 118000: system.cpu.iew.lsq.thread0: In Writeback store
 118000: global: SecBuf : Sec Buf fill pointer reset 0
 118000: global: SecBuf : Fill empty
 119000: system.cpu.iew.lsq.thread0: In Writeback store
 119000: global: SecBuf : Sec Buf fill pointer reset 0
 119000: global: SecBuf : Fill empty
 120000: system.cpu.iew.lsq.thread0: In Writeback store
 120000: global: SecBuf : Sec Buf fill pointer reset 0
 120000: global: SecBuf : Fill empty
 121000: system.cpu.icache.cpu_side: Cache : Recv Packet
 121000: system.cpu.icache.cpu_side: Recv Packet Non SecBuf Fill SecBufFill = 0, SpeculativeRead = 0
 121000: system.cpu.icache.cpu_side: Received Packet Non SecBuf Fill
 121000: system.cpu.iew.lsq.thread0: In Writeback store
 121000: global: SecBuf : Sec Buf fill pointer reset 0
 121000: global: SecBuf : Fill empty
 122000: system.cpu.iew.lsq.thread0: In Writeback store
 122000: global: SecBuf : Sec Buf fill pointer reset 0
 122000: global: SecBuf : Fill empty
 123000: system.cpu.icache: Found a miss for:ReadReq [1740:177f] IF
 123000: system.l2cache.cpu_side: Cache : Recv Packet
 123000: system.l2cache.cpu_side: Recv Packet Non SecBuf Fill SecBufFill = 0, SpeculativeRead = 0
 123000: system.l2cache.cpu_side: Received Packet Non SecBuf Fill
 123000: system.cpu.iew.lsq.thread0: In Writeback store
 123000: global: SecBuf : Sec Buf fill pointer reset 0
 123000: global: SecBuf : Fill empty
 124000: system.cpu.iew.lsq.thread0: In Writeback store
 124000: global: SecBuf : Sec Buf fill pointer reset 0
 124000: global: SecBuf : Fill empty
 125000: system.cpu.iew.lsq.thread0: In Writeback store
 125000: global: SecBuf : Sec Buf fill pointer reset 0
 125000: global: SecBuf : Fill empty
 126000: system.cpu.iew.lsq.thread0: In Writeback store
 126000: global: SecBuf : Sec Buf fill pointer reset 0
 126000: global: SecBuf : Fill empty
 127000: system.cpu.iew.lsq.thread0: In Writeback store
 127000: global: SecBuf : Sec Buf fill pointer reset 0
 127000: global: SecBuf : Fill empty
 128000: system.cpu.iew.lsq.thread0: In Writeback store
 128000: global: SecBuf : Sec Buf fill pointer reset 0
 128000: global: SecBuf : Fill empty
 129000: system.cpu.iew.lsq.thread0: In Writeback store
 129000: global: SecBuf : Sec Buf fill pointer reset 0
 129000: global: SecBuf : Fill empty
 130000: system.cpu.iew.lsq.thread0: In Writeback store
 130000: global: SecBuf : Sec Buf fill pointer reset 0
 130000: global: SecBuf : Fill empty
 138000: system.l2cache: Found a miss for:ReadSharedReq [e2e40:e2e7f]
 144000: system.l2cache: Found a miss for:ReadSharedReq [1740:177f] IF
 224000: system.l2cache.cpu_side: Cache : Recv Packet
 224000: system.l2cache.cpu_side: Recv Packet Non SecBuf Fill SecBufFill = 0, SpeculativeRead = 0
 224000: system.l2cache.cpu_side: Received Packet Non SecBuf Fill
 224000: system.cpu.iew.lsq: Packet response for sec buf fill = 0
 224000: system.cpu.iew.lsq.thread0: DeepaliLSQ: Update entry in theSecurity buffer Addr:0xe2e60, data:0x1 [sn:3] 1
 224000: global: SecBuf : Element updated[sn:3]
 224000: system.cpu.iew.lsq.thread0: In Writeback store
 224000: global: SecBuf : Sec Buf fill pointer reset 0
 224000: global: SecBuf : Fill empty
 225000: system.cpu.iew.lsq.thread0: In Writeback store
 225000: global: SecBuf : Sec Buf fill pointer reset 0
 225000: global: SecBuf : Fill empty
 226000: system.cpu.iew.lsq.thread0: In Writeback store
 226000: global: SecBuf : Sec Buf fill pointer reset 0
 226000: global: SecBuf : Fill empty
 227000: system.cpu.iew.lsq.thread0: In Writeback store
 227000: global: SecBuf : Sec Buf fill pointer reset 0
 227000: global: SecBuf : Fill empty
 227000: system.cpu.iew.lsq.thread0: DeepaliLSQ: Committing head load instruction,PC (0x400ed2=>0x400ed3).(0=>1), [sn:3]
 227000: global: SecBuf : Element committed[sn:3]
 228000: system.cpu.iew.lsq.thread0: In Writeback store
 228000: global: SecBuf : Sec Buf fill pointer reset 0
 228000: global: SecBuf : Fill not empty
 228000: global: SecBuf : Element to be issues asfill [sn:3]
 228000: system.cpu.iew.lsq.thread0: DeepaliD-Cache: Security buffer writingback to Addr:0xe2e60, data:0x1 [sn:3] Fill from SecBuf index = 0
 228000: system.cpu.iew.lsq.thread0: DeepaliD-Cache: Security buffer writingback to Addr:0xe2e60, data:0x1 [sn:3], IsSecBufFill 1
 228000: system.cpu.dcache.cpu_side: Cache : Recv Packet
 228000: system.cpu.dcache.cpu_side: SecBuf fill Request
 228000: system.cpu.dcache: Block accessed
 228000: system.cpu.dcache: SecBuf filling in. cache miss
 228000: system.cpu.dcache: SecBuf filling in. cache miss.Created new block
 228000: system.cpu.dcache: Cache miss : Write Data to new Block
 228000: global: SecBuf : Element invalidated postfill [sn:3]
 228000: global: SecBuf : Fill empty
 229000: system.cpu.iew.lsq.thread0: In Writeback store
 229000: global: SecBuf : Sec Buf fill pointer reset 0
 229000: global: SecBuf : Fill empty
 229000: system.cpu.iew.lsq.thread0: D-Cache: Writing back store idx:1 PC:(0x400eda=>0x400edb).(0=>1) to Addr:0xe2e58, data:0 [sn:9]
 229000: system.cpu.dcache.cpu_side: Cache : Recv Packet
 229000: system.cpu.dcache.cpu_side: Recv Packet Non SecBuf Fill SecBufFill = 0, SpeculativeRead = 0
 229000: system.cpu.dcache.cpu_side: Received Packet Non SecBuf Fill
 229000: system.cpu.iew.lsq.thread0: send packet
 230000: system.cpu.iew.lsq.thread0: In Writeback store
 230000: global: SecBuf : Sec Buf fill pointer reset 0
 230000: global: SecBuf : Fill empty
 231000: system.cpu.dcache: Found a miss for:WriteReq [e2e58:e2e5f]
 231000: system.l2cache.cpu_side: Cache : Recv Packet
 231000: system.l2cache.cpu_side: Recv Packet Non SecBuf Fill SecBufFill = 0, SpeculativeRead = 0
 231000: system.l2cache.cpu_side: Received Packet Non SecBuf Fill
 231000: system.cpu.iew.lsq.thread0: In Writeback store
 231000: global: SecBuf : Sec Buf fill pointer reset 0
 231000: global: SecBuf : Fill empty
 232000: system.cpu.icache.cpu_side: Cache : Recv Packet
 232000: system.cpu.icache.cpu_side: Recv Packet Non SecBuf Fill SecBufFill = 0, SpeculativeRead = 0
 232000: system.cpu.icache.cpu_side: Received Packet Non SecBuf Fill
 232000: system.cpu.iew.lsq.thread0: In Writeback store
 232000: global: SecBuf : Sec Buf fill pointer reset 0
 232000: global: SecBuf : Fill empty
 233000: system.cpu.iew.lsq.thread0: In Writeback store
 233000: global: SecBuf : Sec Buf fill pointer reset 0
 233000: global: SecBuf : Fill empty
 234000: system.cpu.icache: Found a miss for:ReadReq [1780:17bf] IF
 234000: system.l2cache.cpu_side: Cache : Recv Packet
 234000: system.l2cache.cpu_side: Recv Packet Non SecBuf Fill SecBufFill = 0, SpeculativeRead = 0
 234000: system.l2cache.cpu_side: Received Packet Non SecBuf Fill
 234000: system.cpu.iew.lsq.thread0: In Writeback store
 234000: global: SecBuf : Sec Buf fill pointer reset 0
 234000: global: SecBuf : Fill empty
 235000: system.cpu.iew.lsq.thread0: In Writeback store
 235000: global: SecBuf : Sec Buf fill pointer reset 0
 235000: global: SecBuf : Fill empty
 236000: system.cpu.iew.lsq.thread0: In Writeback store
 236000: global: SecBuf : Sec Buf fill pointer reset 0
 236000: global: SecBuf : Fill empty
 237000: system.cpu.iew.lsq.thread0: In Writeback store
 237000: global: SecBuf : Sec Buf fill pointer reset 0
 237000: global: SecBuf : Fill empty
 238000: system.cpu.iew.lsq.thread0: In Writeback store
 238000: global: SecBuf : Sec Buf fill pointer reset 0
 238000: global: SecBuf : Fill empty
 239000: system.cpu.iew.lsq.thread0: In Writeback store
 239000: global: SecBuf : Sec Buf fill pointer reset 0
 239000: global: SecBuf : Fill empty
 240000: system.cpu.iew.lsq.thread0: In Writeback store
 240000: global: SecBuf : Sec Buf fill pointer reset 0
 240000: global: SecBuf : Fill empty
 241000: system.cpu.iew.lsq.thread0: In Writeback store
 241000: global: SecBuf : Sec Buf fill pointer reset 0
 241000: global: SecBuf : Fill empty
 242000: system.cpu.iew.lsq.thread0: In Writeback store
 242000: global: SecBuf : Sec Buf fill pointer reset 0
 242000: global: SecBuf : Fill empty
 243000: system.cpu.iew.lsq.thread0: In Writeback store
 243000: global: SecBuf : Sec Buf fill pointer reset 0
 243000: global: SecBuf : Fill empty
 244000: system.cpu.iew.lsq.thread0: In Writeback store
 244000: global: SecBuf : Sec Buf fill pointer reset 0
 244000: global: SecBuf : Fill empty
 245000: system.cpu.iew.lsq.thread0: In Writeback store
 245000: global: SecBuf : Sec Buf fill pointer reset 0
 245000: global: SecBuf : Fill empty
 246000: system.cpu.iew.lsq.thread0: In Writeback store
 246000: global: SecBuf : Sec Buf fill pointer reset 0
 246000: global: SecBuf : Fill empty
 247000: system.cpu.iew.lsq.thread0: In Writeback store
 247000: global: SecBuf : Sec Buf fill pointer reset 0
 247000: global: SecBuf : Fill empty
 248000: system.cpu.iew.lsq.thread0: In Writeback store
 248000: global: SecBuf : Sec Buf fill pointer reset 0
 248000: global: SecBuf : Fill empty
 249000: system.cpu.iew.lsq.thread0: In Writeback store
 249000: global: SecBuf : Sec Buf fill pointer reset 0
 249000: global: SecBuf : Fill empty
 250000: system.cpu.iew.lsq.thread0: In Writeback store
 250000: global: SecBuf : Sec Buf fill pointer reset 0
 250000: global: SecBuf : Fill empty
 251000: system.cpu.iew.lsq.thread0: In Writeback store
 251000: global: SecBuf : Sec Buf fill pointer reset 0
 251000: global: SecBuf : Fill empty
 252000: system.l2cache: Found a miss for:UpgradeReq [e2e40:e2e7f]
 252000: system.cpu.iew.lsq.thread0: In Writeback store
 252000: global: SecBuf : Sec Buf fill pointer reset 0
 252000: global: SecBuf : Fill empty
 253000: system.cpu.iew.lsq.thread0: In Writeback store
 253000: global: SecBuf : Sec Buf fill pointer reset 0
 253000: global: SecBuf : Fill empty
 254000: system.cpu.iew.lsq.thread0: In Writeback store
 254000: global: SecBuf : Sec Buf fill pointer reset 0
 254000: global: SecBuf : Fill empty
 255000: system.l2cache: Found a miss for:ReadSharedReq [1780:17bf] IF
 255000: system.cpu.iew.lsq.thread0: In Writeback store
 255000: global: SecBuf : Sec Buf fill pointer reset 0
 255000: global: SecBuf : Fill empty
 256000: system.cpu.iew.lsq.thread0: In Writeback store
 256000: global: SecBuf : Sec Buf fill pointer reset 0
 256000: global: SecBuf : Fill empty
 257000: system.cpu.iew.lsq.thread0: In Writeback store
 257000: global: SecBuf : Sec Buf fill pointer reset 0
 257000: global: SecBuf : Fill empty
 258000: system.cpu.iew.lsq.thread0: In Writeback store
 258000: global: SecBuf : Sec Buf fill pointer reset 0
 258000: global: SecBuf : Fill empty
 259000: system.cpu.iew.lsq.thread0: In Writeback store
 259000: global: SecBuf : Sec Buf fill pointer reset 0
 259000: global: SecBuf : Fill empty
 260000: system.cpu.iew.lsq.thread0: In Writeback store
 260000: global: SecBuf : Sec Buf fill pointer reset 0
 260000: global: SecBuf : Fill empty
 261000: system.cpu.iew.lsq.thread0: In Writeback store
 261000: global: SecBuf : Sec Buf fill pointer reset 0
 261000: global: SecBuf : Fill empty
 262000: system.cpu.iew.lsq.thread0: In Writeback store
 262000: global: SecBuf : Sec Buf fill pointer reset 0
 262000: global: SecBuf : Fill empty
 263000: system.cpu.iew.lsq.thread0: In Writeback store
 263000: global: SecBuf : Sec Buf fill pointer reset 0
 263000: global: SecBuf : Fill empty
 264000: system.cpu.iew.lsq.thread0: In Writeback store
 264000: global: SecBuf : Sec Buf fill pointer reset 0
 264000: global: SecBuf : Fill empty
 265000: system.cpu.iew.lsq.thread0: In Writeback store
 265000: global: SecBuf : Sec Buf fill pointer reset 0
 265000: global: SecBuf : Fill empty
 266000: system.cpu.iew.lsq.thread0: In Writeback store
 266000: global: SecBuf : Sec Buf fill pointer reset 0
 266000: global: SecBuf : Fill empty
 267000: system.cpu.iew.lsq.thread0: In Writeback store
 267000: global: SecBuf : Sec Buf fill pointer reset 0
 267000: global: SecBuf : Fill empty
 268000: system.cpu.iew.lsq.thread0: In Writeback store
 268000: global: SecBuf : Sec Buf fill pointer reset 0
 268000: global: SecBuf : Fill empty
 269000: system.cpu.iew.lsq.thread0: In Writeback store
 269000: global: SecBuf : Sec Buf fill pointer reset 0
 269000: global: SecBuf : Fill empty
 270000: system.cpu.iew.lsq.thread0: In Writeback store
 270000: global: SecBuf : Sec Buf fill pointer reset 0
 270000: global: SecBuf : Fill empty
 271000: system.cpu.iew.lsq.thread0: In Writeback store
 271000: global: SecBuf : Sec Buf fill pointer reset 0
 271000: global: SecBuf : Fill empty
 272000: system.cpu.iew.lsq.thread0: In Writeback store
 272000: global: SecBuf : Sec Buf fill pointer reset 0
 272000: global: SecBuf : Fill empty
 273000: system.cpu.iew.lsq.thread0: In Writeback store
 273000: global: SecBuf : Sec Buf fill pointer reset 0
 273000: global: SecBuf : Fill empty
 274000: system.cpu.iew.lsq.thread0: In Writeback store
 274000: global: SecBuf : Sec Buf fill pointer reset 0
 274000: global: SecBuf : Fill empty
 275000: system.cpu.iew.lsq.thread0: In Writeback store
 275000: global: SecBuf : Sec Buf fill pointer reset 0
 275000: global: SecBuf : Fill empty
 276000: system.cpu.iew.lsq.thread0: In Writeback store
 276000: global: SecBuf : Sec Buf fill pointer reset 0
 276000: global: SecBuf : Fill empty
 277000: system.cpu.iew.lsq.thread0: In Writeback store
 277000: global: SecBuf : Sec Buf fill pointer reset 0
 277000: global: SecBuf : Fill empty
 278000: system.cpu.iew.lsq.thread0: In Writeback store
 278000: global: SecBuf : Sec Buf fill pointer reset 0
 278000: global: SecBuf : Fill empty
 279000: system.cpu.iew.lsq.thread0: In Writeback store
 279000: global: SecBuf : Sec Buf fill pointer reset 0
 279000: global: SecBuf : Fill empty
 280000: system.cpu.iew.lsq.thread0: In Writeback store
 280000: global: SecBuf : Sec Buf fill pointer reset 0
 280000: global: SecBuf : Fill empty
 281000: system.cpu.iew.lsq.thread0: In Writeback store
 281000: global: SecBuf : Sec Buf fill pointer reset 0
 281000: global: SecBuf : Fill empty
 282000: system.cpu.iew.lsq.thread0: In Writeback store
 282000: global: SecBuf : Sec Buf fill pointer reset 0
 282000: global: SecBuf : Fill empty
 283000: system.cpu.iew.lsq: Packet response for sec buf fill = 0
 283000: system.cpu.iew.lsq.thread0: DeepaliLSQ: Don't update entry in theSecurity buffer Addr:0xe2e58, data:0 [sn:9] 0
 283000: system.cpu.iew.lsq.thread0: In Writeback store
 283000: global: SecBuf : Sec Buf fill pointer reset 0
 283000: global: SecBuf : Fill empty
 283000: system.cpu.iew.lsq.thread0: D-Cache: Writing back store idx:2 PC:(0x400edb=>0x400edc).(0=>1) to Addr:0xe2e50, data:0x58 [sn:11]
 283000: system.cpu.dcache.cpu_side: Cache : Recv Packet
 283000: system.cpu.dcache.cpu_side: Recv Packet Non SecBuf Fill SecBufFill = 0, SpeculativeRead = 0
 283000: system.cpu.dcache.cpu_side: Received Packet Non SecBuf Fill
 283000: system.cpu.iew.lsq.thread0: send packet
 284000: system.cpu.iew.lsq.thread0: In Writeback store
 284000: global: SecBuf : Sec Buf fill pointer reset 0
 284000: global: SecBuf : Fill empty
 285000: system.cpu.iew.lsq: Packet response for sec buf fill = 0
 285000: system.cpu.iew.lsq.thread0: DeepaliLSQ: Don't update entry in theSecurity buffer Addr:0xe2e50, data:0x58 [sn:11] 0
 285000: system.cpu.iew.lsq.thread0: In Writeback store
 285000: global: SecBuf : Sec Buf fill pointer reset 0
 285000: global: SecBuf : Fill empty
 285000: system.cpu.iew.lsq.thread0: D-Cache: Writing back store idx:3 PC:(0x400ef1=>0x400ef6).(2=>3) to Addr:0xe2e48, data:0xf6 [sn:18]
 285000: system.cpu.dcache.cpu_side: Cache : Recv Packet
 285000: system.cpu.dcache.cpu_side: Recv Packet Non SecBuf Fill SecBufFill = 0, SpeculativeRead = 0
 285000: system.cpu.dcache.cpu_side: Received Packet Non SecBuf Fill
 285000: system.cpu.iew.lsq.thread0: send packet
 286000: system.cpu.iew.lsq.thread0: In Writeback store
 286000: global: SecBuf : Sec Buf fill pointer reset 0
 286000: global: SecBuf : Fill empty
 287000: system.cpu.iew.lsq: Packet response for sec buf fill = 0
 287000: system.cpu.iew.lsq.thread0: DeepaliLSQ: Don't update entry in theSecurity buffer Addr:0xe2e48, data:0xf6 [sn:18] 0
 287000: system.cpu.iew.lsq.thread0: In Writeback store
 287000: global: SecBuf : Sec Buf fill pointer reset 0
 287000: global: SecBuf : Fill empty
 287000: system.cpu.iew.lsq.thread0: D-Cache: Writing back store idx:4 PC:(0x401740=>0x401742).(0=>1) to Addr:0xe2e40, data:0 [sn:22]
 287000: system.cpu.dcache.cpu_side: Cache : Recv Packet
 287000: system.cpu.dcache.cpu_side: Recv Packet Non SecBuf Fill SecBufFill = 0, SpeculativeRead = 0
 287000: system.cpu.dcache.cpu_side: Received Packet Non SecBuf Fill
 287000: system.cpu.iew.lsq.thread0: send packet
 288000: system.cpu.iew.lsq.thread0: In Writeback store
 288000: global: SecBuf : Sec Buf fill pointer reset 0
 288000: global: SecBuf : Fill empty
 289000: system.cpu.iew.lsq: Packet response for sec buf fill = 0
 289000: system.cpu.iew.lsq.thread0: DeepaliLSQ: Don't update entry in theSecurity buffer Addr:0xe2e40, data:0 [sn:22] 0
 289000: system.cpu.iew.lsq.thread0: In Writeback store
 289000: global: SecBuf : Sec Buf fill pointer reset 0
 289000: global: SecBuf : Fill empty
 289000: system.cpu.iew.lsq.thread0: D-Cache: Writing back store idx:5 PC:(0x401744=>0x401746).(0=>1) to Addr:0xe2e38, data:0 [sn:25]
 289000: system.cpu.dcache.cpu_side: Cache : Recv Packet
 289000: system.cpu.dcache.cpu_side: Recv Packet Non SecBuf Fill SecBufFill = 0, SpeculativeRead = 0
 289000: system.cpu.dcache.cpu_side: Received Packet Non SecBuf Fill
 289000: system.cpu.iew.lsq.thread0: send packet
 290000: system.cpu.iew.lsq.thread0: In Writeback store
 290000: global: SecBuf : Sec Buf fill pointer reset 0
 290000: global: SecBuf : Fill empty
 291000: system.cpu.dcache: Found a miss for:WriteReq [e2e38:e2e3f]
 291000: system.l2cache.cpu_side: Cache : Recv Packet
 291000: system.l2cache.cpu_side: Recv Packet Non SecBuf Fill SecBufFill = 0, SpeculativeRead = 0
 291000: system.l2cache.cpu_side: Received Packet Non SecBuf Fill
 291000: system.cpu.iew.lsq.thread0: In Writeback store
 291000: global: SecBuf : Sec Buf fill pointer reset 0
 291000: global: SecBuf : Fill empty
 292000: system.cpu.iew.lsq.thread0: In Writeback store
 292000: global: SecBuf : Sec Buf fill pointer reset 0
 292000: global: SecBuf : Fill empty
 293000: system.cpu.iew.lsq.thread0: In Writeback store
 293000: global: SecBuf : Sec Buf fill pointer reset 0
 293000: global: SecBuf : Fill empty
 294000: system.cpu.iew.lsq.thread0: In Writeback store
 294000: global: SecBuf : Sec Buf fill pointer reset 0
 294000: global: SecBuf : Fill empty
 295000: system.cpu.iew.lsq.thread0: In Writeback store
 295000: global: SecBuf : Sec Buf fill pointer reset 0
 295000: global: SecBuf : Fill empty
 296000: system.cpu.iew.lsq.thread0: In Writeback store
 296000: global: SecBuf : Sec Buf fill pointer reset 0
 296000: global: SecBuf : Fill empty
 297000: system.cpu.iew.lsq.thread0: In Writeback store
 297000: global: SecBuf : Sec Buf fill pointer reset 0
 297000: global: SecBuf : Fill empty
 298000: system.cpu.iew.lsq.thread0: In Writeback store
 298000: global: SecBuf : Sec Buf fill pointer reset 0
 298000: global: SecBuf : Fill empty
 299000: system.cpu.iew.lsq.thread0: In Writeback store
 299000: global: SecBuf : Sec Buf fill pointer reset 0
 299000: global: SecBuf : Fill empty
 300000: system.cpu.iew.lsq.thread0: In Writeback store
 300000: global: SecBuf : Sec Buf fill pointer reset 0
 300000: global: SecBuf : Fill empty
 301000: system.cpu.iew.lsq.thread0: In Writeback store
 301000: global: SecBuf : Sec Buf fill pointer reset 0
 301000: global: SecBuf : Fill empty
 302000: system.cpu.iew.lsq.thread0: In Writeback store
 302000: global: SecBuf : Sec Buf fill pointer reset 0
 302000: global: SecBuf : Fill empty
 303000: system.cpu.iew.lsq.thread0: In Writeback store
 303000: global: SecBuf : Sec Buf fill pointer reset 0
 303000: global: SecBuf : Fill empty
 304000: system.cpu.iew.lsq.thread0: In Writeback store
 304000: global: SecBuf : Sec Buf fill pointer reset 0
 304000: global: SecBuf : Fill empty
 305000: system.cpu.iew.lsq.thread0: In Writeback store
 305000: global: SecBuf : Sec Buf fill pointer reset 0
 305000: global: SecBuf : Fill empty
 306000: system.cpu.iew.lsq.thread0: In Writeback store
 306000: global: SecBuf : Sec Buf fill pointer reset 0
 306000: global: SecBuf : Fill empty
 307000: system.cpu.iew.lsq.thread0: In Writeback store
 307000: global: SecBuf : Sec Buf fill pointer reset 0
 307000: global: SecBuf : Fill empty
 308000: system.cpu.iew.lsq.thread0: In Writeback store
 308000: global: SecBuf : Sec Buf fill pointer reset 0
 308000: global: SecBuf : Fill empty
 309000: system.cpu.iew.lsq.thread0: In Writeback store
 309000: global: SecBuf : Sec Buf fill pointer reset 0
 309000: global: SecBuf : Fill empty
 310000: system.cpu.iew.lsq.thread0: In Writeback store
 310000: global: SecBuf : Sec Buf fill pointer reset 0
 310000: global: SecBuf : Fill empty
 311000: system.cpu.iew.lsq.thread0: In Writeback store
 311000: global: SecBuf : Sec Buf fill pointer reset 0
 311000: global: SecBuf : Fill empty
 312000: system.l2cache: Found a miss for:ReadExReq [e2e00:e2e3f]
 312000: system.cpu.iew.lsq.thread0: In Writeback store
 312000: global: SecBuf : Sec Buf fill pointer reset 0
 312000: global: SecBuf : Fill empty
 313000: system.cpu.iew.lsq.thread0: In Writeback store
 313000: global: SecBuf : Sec Buf fill pointer reset 0
 313000: global: SecBuf : Fill empty
 314000: system.cpu.iew.lsq.thread0: In Writeback store
 314000: global: SecBuf : Sec Buf fill pointer reset 0
 314000: global: SecBuf : Fill empty
 315000: system.cpu.iew.lsq.thread0: In Writeback store
 315000: global: SecBuf : Sec Buf fill pointer reset 0
 315000: global: SecBuf : Fill empty
 316000: system.cpu.iew.lsq.thread0: In Writeback store
 316000: global: SecBuf : Sec Buf fill pointer reset 0
 316000: global: SecBuf : Fill empty
 317000: system.cpu.iew.lsq.thread0: In Writeback store
 317000: global: SecBuf : Sec Buf fill pointer reset 0
 317000: global: SecBuf : Fill empty
 318000: system.cpu.iew.lsq.thread0: In Writeback store
 318000: global: SecBuf : Sec Buf fill pointer reset 0
 318000: global: SecBuf : Fill empty
 319000: system.cpu.iew.lsq.thread0: In Writeback store
 319000: global: SecBuf : Sec Buf fill pointer reset 0
 319000: global: SecBuf : Fill empty
 320000: system.cpu.iew.lsq.thread0: In Writeback store
 320000: global: SecBuf : Sec Buf fill pointer reset 0
 320000: global: SecBuf : Fill empty
 321000: system.cpu.iew.lsq.thread0: In Writeback store
 321000: global: SecBuf : Sec Buf fill pointer reset 0
 321000: global: SecBuf : Fill empty
 322000: system.cpu.iew.lsq.thread0: In Writeback store
 322000: global: SecBuf : Sec Buf fill pointer reset 0
 322000: global: SecBuf : Fill empty
 323000: system.cpu.iew.lsq.thread0: In Writeback store
 323000: global: SecBuf : Sec Buf fill pointer reset 0
 323000: global: SecBuf : Fill empty
 324000: system.cpu.iew.lsq.thread0: In Writeback store
 324000: global: SecBuf : Sec Buf fill pointer reset 0
 324000: global: SecBuf : Fill empty
 325000: system.cpu.iew.lsq.thread0: In Writeback store
 325000: global: SecBuf : Sec Buf fill pointer reset 0
 325000: global: SecBuf : Fill empty
 326000: system.cpu.iew.lsq.thread0: In Writeback store
 326000: global: SecBuf : Sec Buf fill pointer reset 0
 326000: global: SecBuf : Fill empty
 327000: system.cpu.iew.lsq.thread0: In Writeback store
 327000: global: SecBuf : Sec Buf fill pointer reset 0
 327000: global: SecBuf : Fill empty
 328000: system.cpu.iew.lsq.thread0: In Writeback store
 328000: global: SecBuf : Sec Buf fill pointer reset 0
 328000: global: SecBuf : Fill empty
 329000: system.cpu.iew.lsq.thread0: In Writeback store
 329000: global: SecBuf : Sec Buf fill pointer reset 0
 329000: global: SecBuf : Fill empty
 330000: system.cpu.icache.cpu_side: Cache : Recv Packet
 330000: system.cpu.icache.cpu_side: Recv Packet Non SecBuf Fill SecBufFill = 0, SpeculativeRead = 0
 330000: system.cpu.icache.cpu_side: Received Packet Non SecBuf Fill
 330000: system.cpu.iew.lsq.thread0: In Writeback store
 330000: global: SecBuf : Sec Buf fill pointer reset 0
 330000: global: SecBuf : Fill empty
 331000: system.cpu.iew.lsq.thread0: In Writeback store
 331000: global: SecBuf : Sec Buf fill pointer reset 0
 331000: global: SecBuf : Fill empty
 332000: system.cpu.icache: Found a miss for:ReadReq [17c0:17ff] IF
 332000: system.l2cache.cpu_side: Cache : Recv Packet
 332000: system.l2cache.cpu_side: Recv Packet Non SecBuf Fill SecBufFill = 0, SpeculativeRead = 0
 332000: system.l2cache.cpu_side: Received Packet Non SecBuf Fill
 332000: system.cpu.iew.lsq.thread0: In Writeback store
 332000: global: SecBuf : Sec Buf fill pointer reset 0
 332000: global: SecBuf : Fill empty
 333000: system.cpu.iew.lsq.thread0: In Writeback store
 333000: global: SecBuf : Sec Buf fill pointer reset 0
 333000: global: SecBuf : Fill empty
 334000: system.cpu.iew.lsq.thread0: In Writeback store
 334000: global: SecBuf : Sec Buf fill pointer reset 0
 334000: global: SecBuf : Fill empty
 335000: system.cpu.iew.lsq.thread0: In Writeback store
 335000: global: SecBuf : Sec Buf fill pointer reset 0
 335000: global: SecBuf : Fill empty
 336000: system.cpu.iew.lsq.thread0: In Writeback store
 336000: global: SecBuf : Sec Buf fill pointer reset 0
 336000: global: SecBuf : Fill empty
 337000: system.cpu.iew.lsq.thread0: In Writeback store
 337000: global: SecBuf : Sec Buf fill pointer reset 0
 337000: global: SecBuf : Fill empty
 338000: system.cpu.iew.lsq.thread0: In Writeback store
 338000: global: SecBuf : Sec Buf fill pointer reset 0
 338000: global: SecBuf : Fill empty
 339000: system.cpu.iew.lsq.thread0: In Writeback store
 339000: global: SecBuf : Sec Buf fill pointer reset 0
 339000: global: SecBuf : Fill empty
 340000: system.cpu.iew.lsq.thread0: In Writeback store
 340000: global: SecBuf : Sec Buf fill pointer reset 0
 340000: global: SecBuf : Fill empty
 341000: system.cpu.iew.lsq.thread0: In Writeback store
 341000: global: SecBuf : Sec Buf fill pointer reset 0
 341000: global: SecBuf : Fill empty
 342000: system.cpu.iew.lsq.thread0: In Writeback store
 342000: global: SecBuf : Sec Buf fill pointer reset 0
 342000: global: SecBuf : Fill empty
 343000: system.cpu.iew.lsq.thread0: In Writeback store
 343000: global: SecBuf : Sec Buf fill pointer reset 0
 343000: global: SecBuf : Fill empty
 344000: system.cpu.iew.lsq.thread0: In Writeback store
 344000: global: SecBuf : Sec Buf fill pointer reset 0
 344000: global: SecBuf : Fill empty
 345000: system.cpu.iew.lsq.thread0: In Writeback store
 345000: global: SecBuf : Sec Buf fill pointer reset 0
 345000: global: SecBuf : Fill empty
 346000: system.cpu.iew.lsq.thread0: In Writeback store
 346000: global: SecBuf : Sec Buf fill pointer reset 0
 346000: global: SecBuf : Fill empty
 347000: system.cpu.iew.lsq.thread0: In Writeback store
 347000: global: SecBuf : Sec Buf fill pointer reset 0
 347000: global: SecBuf : Fill empty
 348000: system.cpu.iew.lsq.thread0: In Writeback store
 348000: global: SecBuf : Sec Buf fill pointer reset 0
 348000: global: SecBuf : Fill empty
 349000: system.cpu.iew.lsq.thread0: In Writeback store
 349000: global: SecBuf : Sec Buf fill pointer reset 0
 349000: global: SecBuf : Fill empty
 350000: system.cpu.iew.lsq.thread0: In Writeback store
 350000: global: SecBuf : Sec Buf fill pointer reset 0
 350000: global: SecBuf : Fill empty
 351000: system.cpu.iew.lsq.thread0: In Writeback store
 351000: global: SecBuf : Sec Buf fill pointer reset 0
 351000: global: SecBuf : Fill empty
 352000: system.cpu.iew.lsq.thread0: In Writeback store
 352000: global: SecBuf : Sec Buf fill pointer reset 0
 352000: global: SecBuf : Fill empty
 353000: system.l2cache: Found a miss for:ReadSharedReq [17c0:17ff] IF
 353000: system.cpu.iew.lsq.thread0: In Writeback store
 353000: global: SecBuf : Sec Buf fill pointer reset 0
 353000: global: SecBuf : Fill empty
 354000: system.cpu.iew.lsq.thread0: In Writeback store
 354000: global: SecBuf : Sec Buf fill pointer reset 0
 354000: global: SecBuf : Fill empty
 355000: system.cpu.iew.lsq.thread0: In Writeback store
 355000: global: SecBuf : Sec Buf fill pointer reset 0
 355000: global: SecBuf : Fill empty
 356000: system.cpu.iew.lsq.thread0: In Writeback store
 356000: global: SecBuf : Sec Buf fill pointer reset 0
 356000: global: SecBuf : Fill empty
 357000: system.cpu.iew.lsq.thread0: In Writeback store
 357000: global: SecBuf : Sec Buf fill pointer reset 0
 357000: global: SecBuf : Fill empty
 358000: system.cpu.iew.lsq.thread0: In Writeback store
 358000: global: SecBuf : Sec Buf fill pointer reset 0
 358000: global: SecBuf : Fill empty
 359000: system.cpu.iew.lsq.thread0: In Writeback store
 359000: global: SecBuf : Sec Buf fill pointer reset 0
 359000: global: SecBuf : Fill empty
 360000: system.cpu.iew.lsq.thread0: In Writeback store
 360000: global: SecBuf : Sec Buf fill pointer reset 0
 360000: global: SecBuf : Fill empty
 361000: system.cpu.iew.lsq.thread0: In Writeback store
 361000: global: SecBuf : Sec Buf fill pointer reset 0
 361000: global: SecBuf : Fill empty
 362000: system.cpu.iew.lsq.thread0: In Writeback store
 362000: global: SecBuf : Sec Buf fill pointer reset 0
 362000: global: SecBuf : Fill empty
 363000: system.cpu.iew.lsq.thread0: In Writeback store
 363000: global: SecBuf : Sec Buf fill pointer reset 0
 363000: global: SecBuf : Fill empty
 364000: system.cpu.iew.lsq.thread0: In Writeback store
 364000: global: SecBuf : Sec Buf fill pointer reset 0
 364000: global: SecBuf : Fill empty
 365000: system.cpu.iew.lsq.thread0: In Writeback store
 365000: global: SecBuf : Sec Buf fill pointer reset 0
 365000: global: SecBuf : Fill empty
 366000: system.cpu.iew.lsq.thread0: In Writeback store
 366000: global: SecBuf : Sec Buf fill pointer reset 0
 366000: global: SecBuf : Fill empty
 367000: system.cpu.iew.lsq.thread0: In Writeback store
 367000: global: SecBuf : Sec Buf fill pointer reset 0
 367000: global: SecBuf : Fill empty
 368000: system.cpu.iew.lsq.thread0: In Writeback store
 368000: global: SecBuf : Sec Buf fill pointer reset 0
 368000: global: SecBuf : Fill empty
 369000: system.cpu.iew.lsq.thread0: In Writeback store
 369000: global: SecBuf : Sec Buf fill pointer reset 0
 369000: global: SecBuf : Fill empty
 370000: system.cpu.iew.lsq.thread0: In Writeback store
 370000: global: SecBuf : Sec Buf fill pointer reset 0
 370000: global: SecBuf : Fill empty
 371000: system.cpu.iew.lsq.thread0: In Writeback store
 371000: global: SecBuf : Sec Buf fill pointer reset 0
 371000: global: SecBuf : Fill empty
 372000: system.cpu.iew.lsq.thread0: In Writeback store
 372000: global: SecBuf : Sec Buf fill pointer reset 0
 372000: global: SecBuf : Fill empty
 373000: system.cpu.iew.lsq.thread0: In Writeback store
 373000: global: SecBuf : Sec Buf fill pointer reset 0
 373000: global: SecBuf : Fill empty
 374000: system.cpu.iew.lsq.thread0: In Writeback store
 374000: global: SecBuf : Sec Buf fill pointer reset 0
 374000: global: SecBuf : Fill empty
 375000: system.cpu.iew.lsq.thread0: In Writeback store
 375000: global: SecBuf : Sec Buf fill pointer reset 0
 375000: global: SecBuf : Fill empty
 376000: system.cpu.iew.lsq.thread0: In Writeback store
 376000: global: SecBuf : Sec Buf fill pointer reset 0
 376000: global: SecBuf : Fill empty
 377000: system.cpu.iew.lsq.thread0: In Writeback store
 377000: global: SecBuf : Sec Buf fill pointer reset 0
 377000: global: SecBuf : Fill empty
 378000: system.cpu.iew.lsq.thread0: In Writeback store
 378000: global: SecBuf : Sec Buf fill pointer reset 0
 378000: global: SecBuf : Fill empty
 379000: system.cpu.iew.lsq.thread0: In Writeback store
 379000: global: SecBuf : Sec Buf fill pointer reset 0
 379000: global: SecBuf : Fill empty
 380000: system.cpu.iew.lsq.thread0: In Writeback store
 380000: global: SecBuf : Sec Buf fill pointer reset 0
 380000: global: SecBuf : Fill empty
 381000: system.cpu.iew.lsq.thread0: In Writeback store
 381000: global: SecBuf : Sec Buf fill pointer reset 0
 381000: global: SecBuf : Fill empty
 382000: system.cpu.iew.lsq.thread0: In Writeback store
 382000: global: SecBuf : Sec Buf fill pointer reset 0
 382000: global: SecBuf : Fill empty
 383000: system.cpu.iew.lsq.thread0: In Writeback store
 383000: global: SecBuf : Sec Buf fill pointer reset 0
 383000: global: SecBuf : Fill empty
 384000: system.cpu.iew.lsq: Packet response for sec buf fill = 0
 384000: system.cpu.iew.lsq.thread0: DeepaliLSQ: Don't update entry in theSecurity buffer Addr:0xe2e38, data:0 [sn:25] 0
 384000: system.cpu.iew.lsq.thread0: In Writeback store
 384000: global: SecBuf : Sec Buf fill pointer reset 0
 384000: global: SecBuf : Fill empty
 384000: system.cpu.iew.lsq.thread0: D-Cache: Writing back store idx:6 PC:(0x401746=>0x401748).(0=>1) to Addr:0xe2e30, data:0 [sn:27]
 384000: system.cpu.dcache.cpu_side: Cache : Recv Packet
 384000: system.cpu.dcache.cpu_side: Recv Packet Non SecBuf Fill SecBufFill = 0, SpeculativeRead = 0
 384000: system.cpu.dcache.cpu_side: Received Packet Non SecBuf Fill
 384000: system.cpu.iew.lsq.thread0: send packet
 385000: system.cpu.iew.lsq.thread0: In Writeback store
 385000: global: SecBuf : Sec Buf fill pointer reset 0
 385000: global: SecBuf : Fill empty
 386000: system.cpu.iew.lsq: Packet response for sec buf fill = 0
 386000: system.cpu.iew.lsq.thread0: DeepaliLSQ: Don't update entry in theSecurity buffer Addr:0xe2e30, data:0 [sn:27] 0
 386000: system.cpu.iew.lsq.thread0: In Writeback store
 386000: global: SecBuf : Sec Buf fill pointer reset 0
 386000: global: SecBuf : Fill empty
 386000: system.cpu.iew.lsq.thread0: D-Cache: Writing back store idx:7 PC:(0x401748=>0x40174a).(0=>1) to Addr:0xe2e28, data:0 [sn:29]
 386000: system.cpu.dcache.cpu_side: Cache : Recv Packet
 386000: system.cpu.dcache.cpu_side: Recv Packet Non SecBuf Fill SecBufFill = 0, SpeculativeRead = 0
 386000: system.cpu.dcache.cpu_side: Received Packet Non SecBuf Fill
 386000: system.cpu.iew.lsq.thread0: send packet
 387000: system.cpu.iew.lsq.thread0: In Writeback store
 387000: global: SecBuf : Sec Buf fill pointer reset 0
 387000: global: SecBuf : Fill empty
 388000: system.cpu.iew.lsq: Packet response for sec buf fill = 0
 388000: system.cpu.iew.lsq.thread0: DeepaliLSQ: Don't update entry in theSecurity buffer Addr:0xe2e28, data:0 [sn:29] 0
 388000: system.cpu.iew.lsq.thread0: In Writeback store
 388000: global: SecBuf : Sec Buf fill pointer reset 0
 388000: global: SecBuf : Fill empty
 388000: system.cpu.iew.lsq.thread0: D-Cache: Writing back store idx:8 PC:(0x40174a=>0x40174b).(0=>1) to Addr:0xe2e20, data:0 [sn:31]
 388000: system.cpu.dcache.cpu_side: Cache : Recv Packet
 388000: system.cpu.dcache.cpu_side: Recv Packet Non SecBuf Fill SecBufFill = 0, SpeculativeRead = 0
 388000: system.cpu.dcache.cpu_side: Received Packet Non SecBuf Fill
 388000: system.cpu.iew.lsq.thread0: send packet
 389000: system.cpu.iew.lsq.thread0: In Writeback store
 389000: global: SecBuf : Sec Buf fill pointer reset 0
 389000: global: SecBuf : Fill empty
 390000: system.cpu.iew.lsq: Packet response for sec buf fill = 0
 390000: system.cpu.iew.lsq.thread0: DeepaliLSQ: Don't update entry in theSecurity buffer Addr:0xe2e20, data:0 [sn:31] 0
 390000: system.cpu.iew.lsq.thread0: In Writeback store
 390000: global: SecBuf : Sec Buf fill pointer reset 0
 390000: global: SecBuf : Fill empty
 390000: system.cpu.iew.lsq.thread0: D-Cache: Writing back store idx:9 PC:(0x40174b=>0x40174c).(0=>1) to Addr:0xe2e18, data:0 [sn:33]
 390000: system.cpu.dcache.cpu_side: Cache : Recv Packet
 390000: system.cpu.dcache.cpu_side: Recv Packet Non SecBuf Fill SecBufFill = 0, SpeculativeRead = 0
 390000: system.cpu.dcache.cpu_side: Received Packet Non SecBuf Fill
 390000: system.cpu.iew.lsq.thread0: send packet
 391000: system.cpu.iew.lsq.thread0: In Writeback store
 391000: global: SecBuf : Sec Buf fill pointer reset 0
 391000: global: SecBuf : Fill empty
 392000: system.cpu.iew.lsq: Packet response for sec buf fill = 0
 392000: system.cpu.iew.lsq.thread0: DeepaliLSQ: Don't update entry in theSecurity buffer Addr:0xe2e18, data:0 [sn:33] 0
 392000: system.cpu.iew.lsq.thread0: In Writeback store
 392000: global: SecBuf : Sec Buf fill pointer reset 0
 392000: global: SecBuf : Fill empty
 392000: system.cpu.iew.lsq.thread0: D-Cache: Writing back store idx:10 PC:(0x401753=>0x401758).(0=>1) to Addr:0xe2cf8, data:0x68 [sn:37]
 392000: system.cpu.dcache.cpu_side: Cache : Recv Packet
 392000: system.cpu.dcache.cpu_side: Recv Packet Non SecBuf Fill SecBufFill = 0, SpeculativeRead = 0
 392000: system.cpu.dcache.cpu_side: Received Packet Non SecBuf Fill
 392000: system.cpu.iew.lsq.thread0: send packet
 393000: system.cpu.iew.lsq.thread0: In Writeback store
 393000: global: SecBuf : Sec Buf fill pointer reset 0
 393000: global: SecBuf : Fill empty
 394000: system.cpu.dcache: Found a miss for:WriteReq [e2cf8:e2cff]
 394000: system.l2cache.cpu_side: Cache : Recv Packet
 394000: system.l2cache.cpu_side: Recv Packet Non SecBuf Fill SecBufFill = 0, SpeculativeRead = 0
 394000: system.l2cache.cpu_side: Received Packet Non SecBuf Fill
 394000: system.cpu.iew.lsq.thread0: In Writeback store
 394000: global: SecBuf : Sec Buf fill pointer reset 0
 394000: global: SecBuf : Fill empty
 395000: system.cpu.iew.lsq.thread0: In Writeback store
 395000: global: SecBuf : Sec Buf fill pointer reset 0
 395000: global: SecBuf : Fill empty
 396000: system.cpu.iew.lsq.thread0: In Writeback store
 396000: global: SecBuf : Sec Buf fill pointer reset 0
 396000: global: SecBuf : Fill empty
 397000: system.cpu.iew.lsq.thread0: In Writeback store
 397000: global: SecBuf : Sec Buf fill pointer reset 0
 397000: global: SecBuf : Fill empty
 398000: system.cpu.iew.lsq.thread0: In Writeback store
 398000: global: SecBuf : Sec Buf fill pointer reset 0
 398000: global: SecBuf : Fill empty
 399000: system.cpu.iew.lsq.thread0: In Writeback store
 399000: global: SecBuf : Sec Buf fill pointer reset 0
 399000: global: SecBuf : Fill empty
 400000: system.cpu.iew.lsq.thread0: In Writeback store
 400000: global: SecBuf : Sec Buf fill pointer reset 0
 400000: global: SecBuf : Fill empty
 401000: system.cpu.iew.lsq.thread0: In Writeback store
 401000: global: SecBuf : Sec Buf fill pointer reset 0
 401000: global: SecBuf : Fill empty
 402000: system.cpu.iew.lsq.thread0: In Writeback store
 402000: global: SecBuf : Sec Buf fill pointer reset 0
 402000: global: SecBuf : Fill empty
 403000: system.cpu.iew.lsq.thread0: In Writeback store
 403000: global: SecBuf : Sec Buf fill pointer reset 0
 403000: global: SecBuf : Fill empty
 404000: system.cpu.iew.lsq.thread0: In Writeback store
 404000: global: SecBuf : Sec Buf fill pointer reset 0
 404000: global: SecBuf : Fill empty
 405000: system.cpu.iew.lsq.thread0: In Writeback store
 405000: global: SecBuf : Sec Buf fill pointer reset 0
 405000: global: SecBuf : Fill empty
 406000: system.cpu.iew.lsq.thread0: In Writeback store
 406000: global: SecBuf : Sec Buf fill pointer reset 0
 406000: global: SecBuf : Fill empty
 407000: system.cpu.iew.lsq.thread0: In Writeback store
 407000: global: SecBuf : Sec Buf fill pointer reset 0
 407000: global: SecBuf : Fill empty
 408000: system.cpu.iew.lsq.thread0: In Writeback store
 408000: global: SecBuf : Sec Buf fill pointer reset 0
 408000: global: SecBuf : Fill empty
 409000: system.cpu.iew.lsq.thread0: In Writeback store
 409000: global: SecBuf : Sec Buf fill pointer reset 0
 409000: global: SecBuf : Fill empty
 410000: system.cpu.iew.lsq.thread0: In Writeback store
 410000: global: SecBuf : Sec Buf fill pointer reset 0
 410000: global: SecBuf : Fill empty
 411000: system.cpu.iew.lsq.thread0: In Writeback store
 411000: global: SecBuf : Sec Buf fill pointer reset 0
 411000: global: SecBuf : Fill empty
 412000: system.cpu.iew.lsq.thread0: In Writeback store
 412000: global: SecBuf : Sec Buf fill pointer reset 0
 412000: global: SecBuf : Fill empty
 413000: system.cpu.iew.lsq.thread0: In Writeback store
 413000: global: SecBuf : Sec Buf fill pointer reset 0
 413000: global: SecBuf : Fill empty
 414000: system.cpu.iew.lsq.thread0: In Writeback store
 414000: global: SecBuf : Sec Buf fill pointer reset 0
 414000: global: SecBuf : Fill empty
 415000: system.l2cache: Found a miss for:ReadExReq [e2cc0:e2cff]
 415000: system.cpu.iew.lsq.thread0: In Writeback store
 415000: global: SecBuf : Sec Buf fill pointer reset 0
 415000: global: SecBuf : Fill empty
 416000: system.cpu.iew.lsq.thread0: In Writeback store
 416000: global: SecBuf : Sec Buf fill pointer reset 0
 416000: global: SecBuf : Fill empty
 417000: system.cpu.iew.lsq.thread0: In Writeback store
 417000: global: SecBuf : Sec Buf fill pointer reset 0
 417000: global: SecBuf : Fill empty
 418000: system.cpu.iew.lsq.thread0: In Writeback store
 418000: global: SecBuf : Sec Buf fill pointer reset 0
 418000: global: SecBuf : Fill empty
 419000: system.cpu.iew.lsq.thread0: In Writeback store
 419000: global: SecBuf : Sec Buf fill pointer reset 0
 419000: global: SecBuf : Fill empty
 420000: system.cpu.iew.lsq.thread0: In Writeback store
 420000: global: SecBuf : Sec Buf fill pointer reset 0
 420000: global: SecBuf : Fill empty
 421000: system.cpu.iew.lsq.thread0: In Writeback store
 421000: global: SecBuf : Sec Buf fill pointer reset 0
 421000: global: SecBuf : Fill empty
 422000: system.cpu.iew.lsq.thread0: In Writeback store
 422000: global: SecBuf : Sec Buf fill pointer reset 0
 422000: global: SecBuf : Fill empty
 423000: system.cpu.iew.lsq.thread0: In Writeback store
 423000: global: SecBuf : Sec Buf fill pointer reset 0
 423000: global: SecBuf : Fill empty
 424000: system.cpu.iew.lsq.thread0: In Writeback store
 424000: global: SecBuf : Sec Buf fill pointer reset 0
 424000: global: SecBuf : Fill empty
 425000: system.cpu.iew.lsq.thread0: In Writeback store
 425000: global: SecBuf : Sec Buf fill pointer reset 0
 425000: global: SecBuf : Fill empty
 426000: system.cpu.iew.lsq.thread0: In Writeback store
 426000: global: SecBuf : Sec Buf fill pointer reset 0
 426000: global: SecBuf : Fill empty
 427000: system.cpu.iew.lsq.thread0: In Writeback store
 427000: global: SecBuf : Sec Buf fill pointer reset 0
 427000: global: SecBuf : Fill empty
 428000: system.cpu.iew.lsq.thread0: In Writeback store
 428000: global: SecBuf : Sec Buf fill pointer reset 0
 428000: global: SecBuf : Fill empty
 429000: system.cpu.iew.lsq.thread0: In Writeback store
 429000: global: SecBuf : Sec Buf fill pointer reset 0
 429000: global: SecBuf : Fill empty
 430000: system.cpu.iew.lsq.thread0: In Writeback store
 430000: global: SecBuf : Sec Buf fill pointer reset 0
 430000: global: SecBuf : Fill empty
 431000: system.cpu.iew.lsq.thread0: In Writeback store
 431000: global: SecBuf : Sec Buf fill pointer reset 0
 431000: global: SecBuf : Fill empty
 432000: system.cpu.iew.lsq.thread0: In Writeback store
 432000: global: SecBuf : Sec Buf fill pointer reset 0
 432000: global: SecBuf : Fill empty
 433000: system.cpu.iew.lsq.thread0: In Writeback store
 433000: global: SecBuf : Sec Buf fill pointer reset 0
 433000: global: SecBuf : Fill empty
 434000: system.cpu.iew.lsq.thread0: In Writeback store
 434000: global: SecBuf : Sec Buf fill pointer reset 0
 434000: global: SecBuf : Fill empty
 435000: system.cpu.iew.lsq.thread0: In Writeback store
 435000: global: SecBuf : Sec Buf fill pointer reset 0
 435000: global: SecBuf : Fill empty
 436000: system.cpu.iew.lsq.thread0: In Writeback store
 436000: global: SecBuf : Sec Buf fill pointer reset 0
 436000: global: SecBuf : Fill empty
 437000: system.cpu.iew.lsq.thread0: In Writeback store
 437000: global: SecBuf : Sec Buf fill pointer reset 0
 437000: global: SecBuf : Fill empty
 438000: system.cpu.iew.lsq.thread0: In Writeback store
 438000: global: SecBuf : Sec Buf fill pointer reset 0
 438000: global: SecBuf : Fill empty
 439000: system.cpu.iew.lsq.thread0: In Writeback store
 439000: global: SecBuf : Sec Buf fill pointer reset 0
 439000: global: SecBuf : Fill empty
 440000: system.cpu.iew.lsq.thread0: In Writeback store
 440000: global: SecBuf : Sec Buf fill pointer reset 0
 440000: global: SecBuf : Fill empty
 441000: system.cpu.iew.lsq.thread0: In Writeback store
 441000: global: SecBuf : Sec Buf fill pointer reset 0
 441000: global: SecBuf : Fill empty
 442000: system.cpu.iew.lsq.thread0: In Writeback store
 442000: global: SecBuf : Sec Buf fill pointer reset 0
 442000: global: SecBuf : Fill empty
 443000: system.cpu.iew.lsq.thread0: In Writeback store
 443000: global: SecBuf : Sec Buf fill pointer reset 0
 443000: global: SecBuf : Fill empty
 444000: system.cpu.iew.lsq.thread0: In Writeback store
 444000: global: SecBuf : Sec Buf fill pointer reset 0
 444000: global: SecBuf : Fill empty
 445000: system.cpu.iew.lsq.thread0: In Writeback store
 445000: global: SecBuf : Sec Buf fill pointer reset 0
 445000: global: SecBuf : Fill empty
 446000: system.cpu.iew.lsq.thread0: In Writeback store
 446000: global: SecBuf : Sec Buf fill pointer reset 0
 446000: global: SecBuf : Fill empty
 447000: system.cpu.iew.lsq.thread0: In Writeback store
 447000: global: SecBuf : Sec Buf fill pointer reset 0
 447000: global: SecBuf : Fill empty
 448000: system.cpu.iew.lsq.thread0: In Writeback store
 448000: global: SecBuf : Sec Buf fill pointer reset 0
 448000: global: SecBuf : Fill empty
 449000: system.cpu.iew.lsq.thread0: In Writeback store
 449000: global: SecBuf : Sec Buf fill pointer reset 0
 449000: global: SecBuf : Fill empty
 450000: system.cpu.iew.lsq.thread0: In Writeback store
 450000: global: SecBuf : Sec Buf fill pointer reset 0
 450000: global: SecBuf : Fill empty
 451000: system.cpu.iew.lsq.thread0: In Writeback store
 451000: global: SecBuf : Sec Buf fill pointer reset 0
 451000: global: SecBuf : Fill empty
 452000: system.cpu.iew.lsq.thread0: In Writeback store
 452000: global: SecBuf : Sec Buf fill pointer reset 0
 452000: global: SecBuf : Fill empty
 453000: system.cpu.iew.lsq.thread0: In Writeback store
 453000: global: SecBuf : Sec Buf fill pointer reset 0
 453000: global: SecBuf : Fill empty
 454000: system.cpu.iew.lsq.thread0: In Writeback store
 454000: global: SecBuf : Sec Buf fill pointer reset 0
 454000: global: SecBuf : Fill empty
 455000: system.cpu.iew.lsq.thread0: In Writeback store
 455000: global: SecBuf : Sec Buf fill pointer reset 0
 455000: global: SecBuf : Fill empty
 456000: system.cpu.iew.lsq.thread0: In Writeback store
 456000: global: SecBuf : Sec Buf fill pointer reset 0
 456000: global: SecBuf : Fill empty
 457000: system.cpu.iew.lsq.thread0: In Writeback store
 457000: global: SecBuf : Sec Buf fill pointer reset 0
 457000: global: SecBuf : Fill empty
 458000: system.cpu.iew.lsq.thread0: In Writeback store
 458000: global: SecBuf : Sec Buf fill pointer reset 0
 458000: global: SecBuf : Fill empty
 459000: system.cpu.iew.lsq.thread0: In Writeback store
 459000: global: SecBuf : Sec Buf fill pointer reset 0
 459000: global: SecBuf : Fill empty
 460000: system.cpu.iew.lsq.thread0: In Writeback store
 460000: global: SecBuf : Sec Buf fill pointer reset 0
 460000: global: SecBuf : Fill empty
 461000: system.cpu.iew.lsq.thread0: In Writeback store
 461000: global: SecBuf : Sec Buf fill pointer reset 0
 461000: global: SecBuf : Fill empty
 462000: system.cpu.iew.lsq.thread0: In Writeback store
 462000: global: SecBuf : Sec Buf fill pointer reset 0
 462000: global: SecBuf : Fill empty
 463000: system.cpu.iew.lsq.thread0: In Writeback store
 463000: global: SecBuf : Sec Buf fill pointer reset 0
 463000: global: SecBuf : Fill empty
 464000: system.cpu.iew.lsq.thread0: In Writeback store
 464000: global: SecBuf : Sec Buf fill pointer reset 0
 464000: global: SecBuf : Fill empty
 465000: system.cpu.iew.lsq.thread0: In Writeback store
 465000: global: SecBuf : Sec Buf fill pointer reset 0
 465000: global: SecBuf : Fill empty
 466000: system.cpu.iew.lsq.thread0: In Writeback store
 466000: global: SecBuf : Sec Buf fill pointer reset 0
 466000: global: SecBuf : Fill empty
 467000: system.cpu.iew.lsq.thread0: In Writeback store
 467000: global: SecBuf : Sec Buf fill pointer reset 0
 467000: global: SecBuf : Fill empty
 468000: system.cpu.iew.lsq.thread0: In Writeback store
 468000: global: SecBuf : Sec Buf fill pointer reset 0
 468000: global: SecBuf : Fill empty
 469000: system.cpu.iew.lsq.thread0: In Writeback store
 469000: global: SecBuf : Sec Buf fill pointer reset 0
 469000: global: SecBuf : Fill empty
 470000: system.cpu.iew.lsq.thread0: In Writeback store
 470000: global: SecBuf : Sec Buf fill pointer reset 0
 470000: global: SecBuf : Fill empty
 471000: system.cpu.iew.lsq.thread0: In Writeback store
 471000: global: SecBuf : Sec Buf fill pointer reset 0
 471000: global: SecBuf : Fill empty
 472000: system.cpu.iew.lsq.thread0: In Writeback store
 472000: global: SecBuf : Sec Buf fill pointer reset 0
 472000: global: SecBuf : Fill empty
 473000: system.cpu.iew.lsq.thread0: In Writeback store
 473000: global: SecBuf : Sec Buf fill pointer reset 0
 473000: global: SecBuf : Fill empty
 474000: system.cpu.iew.lsq.thread0: In Writeback store
 474000: global: SecBuf : Sec Buf fill pointer reset 0
 474000: global: SecBuf : Fill empty
 475000: system.cpu.iew.lsq.thread0: In Writeback store
 475000: global: SecBuf : Sec Buf fill pointer reset 0
 475000: global: SecBuf : Fill empty
 476000: system.cpu.iew.lsq.thread0: In Writeback store
 476000: global: SecBuf : Sec Buf fill pointer reset 0
 476000: global: SecBuf : Fill empty
 477000: system.cpu.iew.lsq.thread0: In Writeback store
 477000: global: SecBuf : Sec Buf fill pointer reset 0
 477000: global: SecBuf : Fill empty
 478000: system.cpu.iew.lsq.thread0: In Writeback store
 478000: global: SecBuf : Sec Buf fill pointer reset 0
 478000: global: SecBuf : Fill empty
 479000: system.cpu.iew.lsq.thread0: In Writeback store
 479000: global: SecBuf : Sec Buf fill pointer reset 0
 479000: global: SecBuf : Fill empty
 480000: system.cpu.iew.lsq.thread0: In Writeback store
 480000: global: SecBuf : Sec Buf fill pointer reset 0
 480000: global: SecBuf : Fill empty
 481000: system.cpu.iew.lsq.thread0: In Writeback store
 481000: global: SecBuf : Sec Buf fill pointer reset 0
 481000: global: SecBuf : Fill empty
 482000: system.cpu.iew.lsq.thread0: In Writeback store
 482000: global: SecBuf : Sec Buf fill pointer reset 0
 482000: global: SecBuf : Fill empty
 483000: system.cpu.iew.lsq.thread0: In Writeback store
 483000: global: SecBuf : Sec Buf fill pointer reset 0
 483000: global: SecBuf : Fill empty
 484000: system.cpu.iew.lsq.thread0: In Writeback store
 484000: global: SecBuf : Sec Buf fill pointer reset 0
 484000: global: SecBuf : Fill empty
 485000: system.cpu.iew.lsq.thread0: In Writeback store
 485000: global: SecBuf : Sec Buf fill pointer reset 0
 485000: global: SecBuf : Fill empty
 486000: system.cpu.iew.lsq.thread0: In Writeback store
 486000: global: SecBuf : Sec Buf fill pointer reset 0
 486000: global: SecBuf : Fill empty
 487000: system.cpu.iew.lsq: Packet response for sec buf fill = 0
 487000: system.cpu.iew.lsq.thread0: DeepaliLSQ: Don't update entry in theSecurity buffer Addr:0xe2cf8, data:0x68 [sn:37] 0
 487000: system.cpu.iew.lsq.thread0: In Writeback store
 487000: global: SecBuf : Sec Buf fill pointer reset 0
 487000: global: SecBuf : Fill empty
 487000: system.cpu.iew.lsq.thread0: D-Cache: Writing back store idx:11 PC:(0x401758=>0x40175d).(0=>1) to Addr:0xe2d00, data:0x60 [sn:38]
 487000: system.cpu.dcache.cpu_side: Cache : Recv Packet
 487000: system.cpu.dcache.cpu_side: Recv Packet Non SecBuf Fill SecBufFill = 0, SpeculativeRead = 0
 487000: system.cpu.dcache.cpu_side: Received Packet Non SecBuf Fill
 487000: system.cpu.iew.lsq.thread0: send packet
 488000: system.cpu.iew.lsq.thread0: In Writeback store
 488000: global: SecBuf : Sec Buf fill pointer reset 0
 488000: global: SecBuf : Fill empty
 489000: system.cpu.dcache: Found a miss for:WriteReq [e2d00:e2d07]
 489000: system.l2cache.cpu_side: Cache : Recv Packet
 489000: system.l2cache.cpu_side: Recv Packet Non SecBuf Fill SecBufFill = 0, SpeculativeRead = 0
 489000: system.l2cache.cpu_side: Received Packet Non SecBuf Fill
 489000: system.cpu.iew.lsq.thread0: In Writeback store
 489000: global: SecBuf : Sec Buf fill pointer reset 0
 489000: global: SecBuf : Fill empty
 490000: system.cpu.iew.lsq.thread0: In Writeback store
 490000: global: SecBuf : Sec Buf fill pointer reset 0
 490000: global: SecBuf : Fill empty
 491000: system.cpu.iew.lsq.thread0: In Writeback store
 491000: global: SecBuf : Sec Buf fill pointer reset 0
 491000: global: SecBuf : Fill empty
 492000: system.cpu.iew.lsq.thread0: In Writeback store
 492000: global: SecBuf : Sec Buf fill pointer reset 0
 492000: global: SecBuf : Fill empty
 493000: system.cpu.iew.lsq.thread0: In Writeback store
 493000: global: SecBuf : Sec Buf fill pointer reset 0
 493000: global: SecBuf : Fill empty
 494000: system.cpu.iew.lsq.thread0: In Writeback store
 494000: global: SecBuf : Sec Buf fill pointer reset 0
 494000: global: SecBuf : Fill empty
 495000: system.cpu.iew.lsq.thread0: In Writeback store
 495000: global: SecBuf : Sec Buf fill pointer reset 0
 495000: global: SecBuf : Fill empty
 496000: system.cpu.iew.lsq.thread0: In Writeback store
 496000: global: SecBuf : Sec Buf fill pointer reset 0
 496000: global: SecBuf : Fill empty
 497000: system.cpu.iew.lsq.thread0: In Writeback store
 497000: global: SecBuf : Sec Buf fill pointer reset 0
 497000: global: SecBuf : Fill empty
 498000: system.cpu.iew.lsq.thread0: In Writeback store
 498000: global: SecBuf : Sec Buf fill pointer reset 0
 498000: global: SecBuf : Fill empty
 499000: system.cpu.iew.lsq.thread0: In Writeback store
 499000: global: SecBuf : Sec Buf fill pointer reset 0
 499000: global: SecBuf : Fill empty
 500000: system.cpu.iew.lsq.thread0: In Writeback store
 500000: global: SecBuf : Sec Buf fill pointer reset 0
 500000: global: SecBuf : Fill empty
 501000: system.cpu.iew.lsq.thread0: In Writeback store
 501000: global: SecBuf : Sec Buf fill pointer reset 0
 501000: global: SecBuf : Fill empty
 502000: system.cpu.iew.lsq.thread0: In Writeback store
 502000: global: SecBuf : Sec Buf fill pointer reset 0
 502000: global: SecBuf : Fill empty
 503000: system.cpu.iew.lsq.thread0: In Writeback store
 503000: global: SecBuf : Sec Buf fill pointer reset 0
 503000: global: SecBuf : Fill empty
 504000: system.cpu.iew.lsq.thread0: In Writeback store
 504000: global: SecBuf : Sec Buf fill pointer reset 0
 504000: global: SecBuf : Fill empty
 505000: system.cpu.iew.lsq.thread0: In Writeback store
 505000: global: SecBuf : Sec Buf fill pointer reset 0
 505000: global: SecBuf : Fill empty
 506000: system.cpu.iew.lsq.thread0: In Writeback store
 506000: global: SecBuf : Sec Buf fill pointer reset 0
 506000: global: SecBuf : Fill empty
 507000: system.cpu.iew.lsq.thread0: In Writeback store
 507000: global: SecBuf : Sec Buf fill pointer reset 0
 507000: global: SecBuf : Fill empty
 508000: system.cpu.iew.lsq.thread0: In Writeback store
 508000: global: SecBuf : Sec Buf fill pointer reset 0
 508000: global: SecBuf : Fill empty
 509000: system.cpu.iew.lsq.thread0: In Writeback store
 509000: global: SecBuf : Sec Buf fill pointer reset 0
 509000: global: SecBuf : Fill empty
 510000: system.l2cache: Found a miss for:ReadExReq [e2d00:e2d3f]
 510000: system.cpu.iew.lsq.thread0: In Writeback store
 510000: global: SecBuf : Sec Buf fill pointer reset 0
 510000: global: SecBuf : Fill empty
 511000: system.cpu.iew.lsq.thread0: In Writeback store
 511000: global: SecBuf : Sec Buf fill pointer reset 0
 511000: global: SecBuf : Fill empty
 512000: system.cpu.iew.lsq.thread0: In Writeback store
 512000: global: SecBuf : Sec Buf fill pointer reset 0
 512000: global: SecBuf : Fill empty
 513000: system.cpu.iew.lsq.thread0: In Writeback store
 513000: global: SecBuf : Sec Buf fill pointer reset 0
 513000: global: SecBuf : Fill empty
 514000: system.cpu.iew.lsq.thread0: In Writeback store
 514000: global: SecBuf : Sec Buf fill pointer reset 0
 514000: global: SecBuf : Fill empty
 515000: system.cpu.iew.lsq.thread0: In Writeback store
 515000: global: SecBuf : Sec Buf fill pointer reset 0
 515000: global: SecBuf : Fill empty
 516000: system.cpu.iew.lsq.thread0: In Writeback store
 516000: global: SecBuf : Sec Buf fill pointer reset 0
 516000: global: SecBuf : Fill empty
 517000: system.cpu.iew.lsq.thread0: In Writeback store
 517000: global: SecBuf : Sec Buf fill pointer reset 0
 517000: global: SecBuf : Fill empty
 518000: system.cpu.iew.lsq.thread0: In Writeback store
 518000: global: SecBuf : Sec Buf fill pointer reset 0
 518000: global: SecBuf : Fill empty
 519000: system.cpu.iew.lsq.thread0: In Writeback store
 519000: global: SecBuf : Sec Buf fill pointer reset 0
 519000: global: SecBuf : Fill empty
 520000: system.cpu.iew.lsq.thread0: In Writeback store
 520000: global: SecBuf : Sec Buf fill pointer reset 0
 520000: global: SecBuf : Fill empty
 521000: system.cpu.iew.lsq.thread0: In Writeback store
 521000: global: SecBuf : Sec Buf fill pointer reset 0
 521000: global: SecBuf : Fill empty
 522000: system.cpu.iew.lsq.thread0: In Writeback store
 522000: global: SecBuf : Sec Buf fill pointer reset 0
 522000: global: SecBuf : Fill empty
 523000: system.cpu.iew.lsq.thread0: In Writeback store
 523000: global: SecBuf : Sec Buf fill pointer reset 0
 523000: global: SecBuf : Fill empty
 524000: system.cpu.iew.lsq.thread0: In Writeback store
 524000: global: SecBuf : Sec Buf fill pointer reset 0
 524000: global: SecBuf : Fill empty
 525000: system.cpu.iew.lsq.thread0: In Writeback store
 525000: global: SecBuf : Sec Buf fill pointer reset 0
 525000: global: SecBuf : Fill empty
 526000: system.cpu.iew.lsq.thread0: In Writeback store
 526000: global: SecBuf : Sec Buf fill pointer reset 0
 526000: global: SecBuf : Fill empty
 527000: system.cpu.iew.lsq.thread0: In Writeback store
 527000: global: SecBuf : Sec Buf fill pointer reset 0
 527000: global: SecBuf : Fill empty
 528000: system.cpu.iew.lsq.thread0: In Writeback store
 528000: global: SecBuf : Sec Buf fill pointer reset 0
 528000: global: SecBuf : Fill empty
 529000: system.cpu.iew.lsq.thread0: In Writeback store
 529000: global: SecBuf : Sec Buf fill pointer reset 0
 529000: global: SecBuf : Fill empty
 530000: system.cpu.iew.lsq.thread0: In Writeback store
 530000: global: SecBuf : Sec Buf fill pointer reset 0
 530000: global: SecBuf : Fill empty
 531000: system.cpu.iew.lsq.thread0: In Writeback store
 531000: global: SecBuf : Sec Buf fill pointer reset 0
 531000: global: SecBuf : Fill empty
 532000: system.cpu.iew.lsq.thread0: In Writeback store
 532000: global: SecBuf : Sec Buf fill pointer reset 0
 532000: global: SecBuf : Fill empty
 533000: system.cpu.iew.lsq.thread0: In Writeback store
 533000: global: SecBuf : Sec Buf fill pointer reset 0
 533000: global: SecBuf : Fill empty
 534000: system.cpu.iew.lsq.thread0: In Writeback store
 534000: global: SecBuf : Sec Buf fill pointer reset 0
 534000: global: SecBuf : Fill empty
 535000: system.cpu.iew.lsq.thread0: In Writeback store
 535000: global: SecBuf : Sec Buf fill pointer reset 0
 535000: global: SecBuf : Fill empty
 536000: system.cpu.iew.lsq.thread0: In Writeback store
 536000: global: SecBuf : Sec Buf fill pointer reset 0
 536000: global: SecBuf : Fill empty
 537000: system.cpu.iew.lsq.thread0: In Writeback store
 537000: global: SecBuf : Sec Buf fill pointer reset 0
 537000: global: SecBuf : Fill empty
 538000: system.cpu.iew.lsq.thread0: In Writeback store
 538000: global: SecBuf : Sec Buf fill pointer reset 0
 538000: global: SecBuf : Fill empty
 539000: system.cpu.iew.lsq.thread0: In Writeback store
 539000: global: SecBuf : Sec Buf fill pointer reset 0
 539000: global: SecBuf : Fill empty
 540000: system.cpu.iew.lsq.thread0: In Writeback store
 540000: global: SecBuf : Sec Buf fill pointer reset 0
 540000: global: SecBuf : Fill empty
 541000: system.cpu.iew.lsq.thread0: In Writeback store
 541000: global: SecBuf : Sec Buf fill pointer reset 0
 541000: global: SecBuf : Fill empty
 542000: system.cpu.iew.lsq.thread0: In Writeback store
 542000: global: SecBuf : Sec Buf fill pointer reset 0
 542000: global: SecBuf : Fill empty
 543000: system.cpu.iew.lsq.thread0: In Writeback store
 543000: global: SecBuf : Sec Buf fill pointer reset 0
 543000: global: SecBuf : Fill empty
 544000: system.cpu.iew.lsq.thread0: In Writeback store
 544000: global: SecBuf : Sec Buf fill pointer reset 0
 544000: global: SecBuf : Fill empty
 545000: system.cpu.iew.lsq.thread0: In Writeback store
 545000: global: SecBuf : Sec Buf fill pointer reset 0
 545000: global: SecBuf : Fill empty
 546000: system.cpu.iew.lsq.thread0: In Writeback store
 546000: global: SecBuf : Sec Buf fill pointer reset 0
 546000: global: SecBuf : Fill empty
 547000: system.cpu.iew.lsq.thread0: In Writeback store
 547000: global: SecBuf : Sec Buf fill pointer reset 0
 547000: global: SecBuf : Fill empty
 548000: system.cpu.iew.lsq.thread0: In Writeback store
 548000: global: SecBuf : Sec Buf fill pointer reset 0
 548000: global: SecBuf : Fill empty
 549000: system.cpu.iew.lsq.thread0: In Writeback store
 549000: global: SecBuf : Sec Buf fill pointer reset 0
 549000: global: SecBuf : Fill empty
 550000: system.cpu.iew.lsq.thread0: In Writeback store
 550000: global: SecBuf : Sec Buf fill pointer reset 0
 550000: global: SecBuf : Fill empty
 551000: system.cpu.iew.lsq.thread0: In Writeback store
 551000: global: SecBuf : Sec Buf fill pointer reset 0
 551000: global: SecBuf : Fill empty
 552000: system.cpu.iew.lsq.thread0: In Writeback store
 552000: global: SecBuf : Sec Buf fill pointer reset 0
 552000: global: SecBuf : Fill empty
 553000: system.cpu.iew.lsq.thread0: In Writeback store
 553000: global: SecBuf : Sec Buf fill pointer reset 0
 553000: global: SecBuf : Fill empty
 554000: system.cpu.iew.lsq.thread0: In Writeback store
 554000: global: SecBuf : Sec Buf fill pointer reset 0
 554000: global: SecBuf : Fill empty
 555000: system.cpu.iew.lsq.thread0: In Writeback store
 555000: global: SecBuf : Sec Buf fill pointer reset 0
 555000: global: SecBuf : Fill empty
 556000: system.cpu.iew.lsq.thread0: In Writeback store
 556000: global: SecBuf : Sec Buf fill pointer reset 0
 556000: global: SecBuf : Fill empty
 557000: system.cpu.iew.lsq.thread0: In Writeback store
 557000: global: SecBuf : Sec Buf fill pointer reset 0
 557000: global: SecBuf : Fill empty
 558000: system.cpu.iew.lsq.thread0: In Writeback store
 558000: global: SecBuf : Sec Buf fill pointer reset 0
 558000: global: SecBuf : Fill empty
 559000: system.cpu.iew.lsq.thread0: In Writeback store
 559000: global: SecBuf : Sec Buf fill pointer reset 0
 559000: global: SecBuf : Fill empty
 560000: system.cpu.iew.lsq.thread0: In Writeback store
 560000: global: SecBuf : Sec Buf fill pointer reset 0
 560000: global: SecBuf : Fill empty
 561000: system.cpu.iew.lsq.thread0: In Writeback store
 561000: global: SecBuf : Sec Buf fill pointer reset 0
 561000: global: SecBuf : Fill empty
 562000: system.cpu.iew.lsq.thread0: In Writeback store
 562000: global: SecBuf : Sec Buf fill pointer reset 0
 562000: global: SecBuf : Fill empty
 563000: system.cpu.iew.lsq.thread0: In Writeback store
 563000: global: SecBuf : Sec Buf fill pointer reset 0
 563000: global: SecBuf : Fill empty
 564000: system.cpu.iew.lsq.thread0: In Writeback store
 564000: global: SecBuf : Sec Buf fill pointer reset 0
 564000: global: SecBuf : Fill empty
 565000: system.cpu.iew.lsq.thread0: In Writeback store
 565000: global: SecBuf : Sec Buf fill pointer reset 0
 565000: global: SecBuf : Fill empty
 566000: system.cpu.iew.lsq.thread0: In Writeback store
 566000: global: SecBuf : Sec Buf fill pointer reset 0
 566000: global: SecBuf : Fill empty
 567000: system.cpu.iew.lsq.thread0: In Writeback store
 567000: global: SecBuf : Sec Buf fill pointer reset 0
 567000: global: SecBuf : Fill empty
 568000: system.cpu.iew.lsq.thread0: In Writeback store
 568000: global: SecBuf : Sec Buf fill pointer reset 0
 568000: global: SecBuf : Fill empty
 569000: system.cpu.iew.lsq.thread0: In Writeback store
 569000: global: SecBuf : Sec Buf fill pointer reset 0
 569000: global: SecBuf : Fill empty
 570000: system.cpu.iew.lsq.thread0: In Writeback store
 570000: global: SecBuf : Sec Buf fill pointer reset 0
 570000: global: SecBuf : Fill empty
 571000: system.cpu.iew.lsq.thread0: In Writeback store
 571000: global: SecBuf : Sec Buf fill pointer reset 0
 571000: global: SecBuf : Fill empty
 572000: system.cpu.iew.lsq.thread0: In Writeback store
 572000: global: SecBuf : Sec Buf fill pointer reset 0
 572000: global: SecBuf : Fill empty
 573000: system.cpu.iew.lsq.thread0: In Writeback store
 573000: global: SecBuf : Sec Buf fill pointer reset 0
 573000: global: SecBuf : Fill empty
 574000: system.cpu.iew.lsq.thread0: In Writeback store
 574000: global: SecBuf : Sec Buf fill pointer reset 0
 574000: global: SecBuf : Fill empty
 575000: system.cpu.iew.lsq.thread0: In Writeback store
 575000: global: SecBuf : Sec Buf fill pointer reset 0
 575000: global: SecBuf : Fill empty
 576000: system.cpu.iew.lsq.thread0: In Writeback store
 576000: global: SecBuf : Sec Buf fill pointer reset 0
 576000: global: SecBuf : Fill empty
 577000: system.cpu.iew.lsq.thread0: In Writeback store
 577000: global: SecBuf : Sec Buf fill pointer reset 0
 577000: global: SecBuf : Fill empty
 578000: system.cpu.iew.lsq.thread0: In Writeback store
 578000: global: SecBuf : Sec Buf fill pointer reset 0
 578000: global: SecBuf : Fill empty
 579000: system.cpu.iew.lsq.thread0: In Writeback store
 579000: global: SecBuf : Sec Buf fill pointer reset 0
 579000: global: SecBuf : Fill empty
 580000: system.cpu.iew.lsq.thread0: In Writeback store
 580000: global: SecBuf : Sec Buf fill pointer reset 0
 580000: global: SecBuf : Fill empty
 581000: system.cpu.iew.lsq.thread0: In Writeback store
 581000: global: SecBuf : Sec Buf fill pointer reset 0
 581000: global: SecBuf : Fill empty
 582000: system.cpu.iew.lsq: Packet response for sec buf fill = 0
 582000: system.cpu.iew.lsq.thread0: DeepaliLSQ: Don't update entry in theSecurity buffer Addr:0xe2d00, data:0x60 [sn:38] 0
 582000: system.cpu.iew.lsq.thread0: In Writeback store
 582000: global: SecBuf : Sec Buf fill pointer reset 0
 582000: global: SecBuf : Fill empty
 583000: system.cpu.iew.lsq.thread0: In Writeback store
 583000: global: SecBuf : Sec Buf fill pointer reset 0
 583000: global: SecBuf : Fill empty
 584000: system.cpu.iew.lsq.thread0: In Writeback store
 584000: global: SecBuf : Sec Buf fill pointer reset 0
 584000: global: SecBuf : Fill empty
 585000: system.cpu.iew.lsq.thread0: In Writeback store
 585000: global: SecBuf : Sec Buf fill pointer reset 0
 585000: global: SecBuf : Fill empty
 586000: system.cpu.iew.lsq.thread0: In Writeback store
 586000: global: SecBuf : Sec Buf fill pointer reset 0
 586000: global: SecBuf : Fill empty
 587000: system.cpu.iew.lsq.thread0: In Writeback store
 587000: global: SecBuf : Sec Buf fill pointer reset 0
 587000: global: SecBuf : Fill empty
 588000: system.cpu.iew.lsq.thread0: In Writeback store
 588000: global: SecBuf : Sec Buf fill pointer reset 0
 588000: global: SecBuf : Fill empty
 589000: system.cpu.iew.lsq.thread0: In Writeback store
 589000: global: SecBuf : Sec Buf fill pointer reset 0
 589000: global: SecBuf : Fill empty
 590000: system.cpu.iew.lsq.thread0: In Writeback store
 590000: global: SecBuf : Sec Buf fill pointer reset 0
 590000: global: SecBuf : Fill empty
 591000: system.cpu.icache.cpu_side: Cache : Recv Packet
 591000: system.cpu.icache.cpu_side: Recv Packet Non SecBuf Fill SecBufFill = 0, SpeculativeRead = 0
 591000: system.cpu.icache.cpu_side: Received Packet Non SecBuf Fill
 591000: system.cpu.iew.lsq.thread0: In Writeback store
 591000: global: SecBuf : Sec Buf fill pointer reset 0
 591000: global: SecBuf : Fill empty
 592000: system.cpu.iew.lsq.thread0: In Writeback store
 592000: global: SecBuf : Sec Buf fill pointer reset 0
 592000: global: SecBuf : Fill empty
 592000: system.cpu.iew.lsq.thread0: D-Cache: Writing back store idx:12 PC:(0x401765=>0x40176a).(0=>1) to Addr:0xe2ce8, data:0x48 [sn:42]
 592000: system.cpu.dcache.cpu_side: Cache : Recv Packet
 592000: system.cpu.dcache.cpu_side: Recv Packet Non SecBuf Fill SecBufFill = 0, SpeculativeRead = 0
 592000: system.cpu.dcache.cpu_side: Received Packet Non SecBuf Fill
 592000: system.cpu.iew.lsq.thread0: send packet
 593000: system.cpu.iew.lsq.thread0: In Writeback store
 593000: global: SecBuf : Sec Buf fill pointer reset 0
 593000: global: SecBuf : Fill empty
 594000: system.cpu.iew.lsq: Packet response for sec buf fill = 0
 594000: system.cpu.iew.lsq.thread0: DeepaliLSQ: Don't update entry in theSecurity buffer Addr:0xe2ce8, data:0x48 [sn:42] 0
 594000: system.cpu.iew.lsq.thread0: In Writeback store
 594000: global: SecBuf : Sec Buf fill pointer reset 0
 594000: global: SecBuf : Fill empty
 594000: system.cpu.iew.lsq.thread0: D-Cache: Writing back store idx:13 PC:(0x40176a=>0x40176e).(0=>1) to Addr:0xe2cf4, data:0x1 [sn:43]
 594000: system.cpu.dcache.cpu_side: Cache : Recv Packet
 594000: system.cpu.dcache.cpu_side: Recv Packet Non SecBuf Fill SecBufFill = 0, SpeculativeRead = 0
 594000: system.cpu.dcache.cpu_side: Received Packet Non SecBuf Fill
 594000: system.cpu.iew.lsq.thread0: send packet
 595000: system.cpu.icache.cpu_side: Cache : Recv Packet
 595000: system.cpu.icache.cpu_side: Recv Packet Non SecBuf Fill SecBufFill = 0, SpeculativeRead = 0
 595000: system.cpu.icache.cpu_side: Received Packet Non SecBuf Fill
 595000: system.cpu.iew.lsq.thread0: In Writeback store
 595000: global: SecBuf : Sec Buf fill pointer reset 0
 595000: global: SecBuf : Fill empty
 596000: system.cpu.iew.lsq: Packet response for sec buf fill = 0
 596000: system.cpu.iew.lsq.thread0: DeepaliLSQ: Don't update entry in theSecurity buffer Addr:0xe2cf4, data:0x1 [sn:43] 0
 596000: system.cpu.iew.lsq.thread0: In Writeback store
 596000: global: SecBuf : Sec Buf fill pointer reset 0
 596000: global: SecBuf : Fill empty
 596000: system.cpu.iew.lsq.thread0: D-Cache: Writing back store idx:14 PC:(0x40176e=>0x401773).(0=>1) to Addr:0xe2d08, data:0xf0 [sn:44]
 596000: system.cpu.dcache.cpu_side: Cache : Recv Packet
 596000: system.cpu.dcache.cpu_side: Recv Packet Non SecBuf Fill SecBufFill = 0, SpeculativeRead = 0
 596000: system.cpu.dcache.cpu_side: Received Packet Non SecBuf Fill
 596000: system.cpu.iew.lsq.thread0: send packet
 597000: system.cpu.iew.lsq.thread0: In Writeback store
 597000: global: SecBuf : Sec Buf fill pointer reset 0
 597000: global: SecBuf : Fill empty
 598000: system.cpu.iew.lsq: Packet response for sec buf fill = 0
 598000: system.cpu.iew.lsq.thread0: DeepaliLSQ: Don't update entry in theSecurity buffer Addr:0xe2d08, data:0xf0 [sn:44] 0
 598000: system.cpu.iew.lsq.thread0: In Writeback store
 598000: global: SecBuf : Sec Buf fill pointer reset 0
 598000: global: SecBuf : Fill empty
 598000: system.cpu.iew.lsq.thread0: D-Cache: Writing back store idx:15 PC:(0x401773=>0x401779).(1=>2) to Addr:0xc0be4, data:0x7 [sn:46]
 598000: system.cpu.dcache.cpu_side: Cache : Recv Packet
 598000: system.cpu.dcache.cpu_side: Recv Packet Non SecBuf Fill SecBufFill = 0, SpeculativeRead = 0
 598000: system.cpu.dcache.cpu_side: Received Packet Non SecBuf Fill
 598000: system.cpu.iew.lsq.thread0: send packet
 599000: system.cpu.iew.lsq.thread0: In Writeback store
 599000: global: SecBuf : Sec Buf fill pointer reset 0
 599000: global: SecBuf : Fill empty
 600000: system.cpu.dcache: Found a miss for:WriteReq [c0be4:c0be7]
 600000: system.l2cache.cpu_side: Cache : Recv Packet
 600000: system.l2cache.cpu_side: Recv Packet Non SecBuf Fill SecBufFill = 0, SpeculativeRead = 0
 600000: system.l2cache.cpu_side: Received Packet Non SecBuf Fill
 600000: system.cpu.icache.cpu_side: Cache : Recv Packet
 600000: system.cpu.icache.cpu_side: Recv Packet Non SecBuf Fill SecBufFill = 0, SpeculativeRead = 0
 600000: system.cpu.icache.cpu_side: Received Packet Non SecBuf Fill
 600000: global: SecBuf : Security Buffer of size = 16has 0 entries
 600000: system.cpu.iew.lsq.thread0: DeepaliLSQ: Add blank/invalid entry to theSecurity buffer Addr:0xc0be4, data:0x30 [sn:117] 1 1
 600000: global: SecBuf : Element added [sn:117]
 600000: system.cpu.dcache.cpu_side: Cache : Recv Packet
 600000: system.cpu.dcache.cpu_side: Recv Packet Non SecBuf Fill SecBufFill = 0, SpeculativeRead = 1
 600000: system.cpu.dcache.cpu_side: Received Packet Non SecBuf Fill
 600000: system.cpu.iew.lsq.thread0: send packet
 600000: system.cpu.iew.lsq.thread0: In Writeback store
 600000: global: SecBuf : Sec Buf fill pointer reset 0
 600000: global: SecBuf : Fill empty
 601000: system.cpu.iew.lsq.thread0: In Writeback store
 601000: global: SecBuf : Sec Buf fill pointer reset 0
 601000: global: SecBuf : Fill empty
 602000: system.cpu.icache: Found a miss for:ReadReq [1800:183f] IF
 602000: system.l2cache.cpu_side: Cache : Recv Packet
 602000: system.l2cache.cpu_side: Recv Packet Non SecBuf Fill SecBufFill = 0, SpeculativeRead = 0
 602000: system.l2cache.cpu_side: Received Packet Non SecBuf Fill
 602000: system.cpu.iew.lsq.thread0: In Writeback store
 602000: global: SecBuf : Sec Buf fill pointer reset 0
 602000: global: SecBuf : Fill empty
 603000: system.cpu.iew.lsq.thread0: In Writeback store
 603000: global: SecBuf : Sec Buf fill pointer reset 0
 603000: global: SecBuf : Fill empty
 604000: system.cpu.iew.lsq.thread0: In Writeback store
 604000: global: SecBuf : Sec Buf fill pointer reset 0
 604000: global: SecBuf : Fill empty
 605000: system.cpu.iew.lsq.thread0: In Writeback store
 605000: global: SecBuf : Sec Buf fill pointer reset 0
 605000: global: SecBuf : Fill empty
 606000: system.cpu.iew.lsq.thread0: In Writeback store
 606000: global: SecBuf : Sec Buf fill pointer reset 0
 606000: global: SecBuf : Fill empty
 607000: system.cpu.iew.lsq.thread0: In Writeback store
 607000: global: SecBuf : Sec Buf fill pointer reset 0
 607000: global: SecBuf : Fill empty
 608000: system.cpu.iew.lsq.thread0: In Writeback store
 608000: global: SecBuf : Sec Buf fill pointer reset 0
 608000: global: SecBuf : Fill empty
 609000: system.cpu.iew.lsq.thread0: In Writeback store
 609000: global: SecBuf : Sec Buf fill pointer reset 0
 609000: global: SecBuf : Fill empty
 610000: system.cpu.iew.lsq.thread0: In Writeback store
[...]
1399000: global: SecBuf : Sec Buf fill pointer reset 0
1399000: global: SecBuf : Fill empty
1400000: system.l2cache: Found a miss for:ReadSharedReq [1cb40:1cb7f] IF
1400000: system.cpu.iew.lsq.thread0: In Writeback store
1400000: global: SecBuf : Sec Buf fill pointer reset 0
1400000: global: SecBuf : Fill empty
1401000: system.cpu.iew.lsq.thread0: In Writeback store
1401000: global: SecBuf : Sec Buf fill pointer reset 0
1401000: global: SecBuf : Fill empty
1402000: system.cpu.iew.lsq.thread0: In Writeback store
1402000: global: SecBuf : Sec Buf fill pointer reset 0
1402000: global: SecBuf : Fill empty
1403000: system.cpu.iew.lsq.thread0: In Writeback store
1403000: global: SecBuf : Sec Buf fill pointer reset 0
1403000: global: SecBuf : Fill empty
1404000: system.l2cache: Found a miss for:ReadSharedReq [e2e80:e2ebf]
1404000: system.cpu.iew.lsq.thread0: In Writeback store
1404000: global: SecBuf : Sec Buf fill pointer reset 0
1404000: global: SecBuf : Fill empty
1405000: system.cpu.iew.lsq.thread0: In Writeback store
1405000: global: SecBuf : Sec Buf fill pointer reset 0
1405000: global: SecBuf : Fill empty
1406000: system.l2cache: Found a miss for:ReadSharedReq [e1bc0:e1bff]
1406000: system.cpu.iew.lsq.thread0: In Writeback store
1406000: global: SecBuf : Sec Buf fill pointer reset 0
1406000: global: SecBuf : Fill empty
1407000: system.cpu.iew.lsq.thread0: In Writeback store
1407000: global: SecBuf : Sec Buf fill pointer reset 0
1407000: global: SecBuf : Fill empty
1408000: system.cpu.iew.lsq.thread0: In Writeback store
1408000: global: SecBuf : Sec Buf fill pointer reset 0
1408000: global: SecBuf : Fill empty
1409000: system.cpu.iew.lsq.thread0: In Writeback store
1409000: global: SecBuf : Sec Buf fill pointer reset 0
1409000: global: SecBuf : Fill empty
1410000: system.l2cache: Found a miss for:UpgradeReq [bf340:bf37f]
1410000: system.cpu.iew.lsq.thread0: In Writeback store
1410000: global: SecBuf : Sec Buf fill pointer reset 0
1410000: global: SecBuf : Fill empty
1411000: system.cpu.iew.lsq.thread0: In Writeback store
1411000: global: SecBuf : Sec Buf fill pointer reset 0
1411000: global: SecBuf : Fill empty
1412000: system.cpu.iew.lsq.thread0: In Writeback store
1412000: global: SecBuf : Sec Buf fill pointer reset 0
1412000: global: SecBuf : Fill empty
1413000: system.cpu.iew.lsq.thread0: In Writeback store
1413000: global: SecBuf : Sec Buf fill pointer reset 0
1413000: global: SecBuf : Fill empty
1414000: system.cpu.iew.lsq.thread0: In Writeback store
1414000: global: SecBuf : Sec Buf fill pointer reset 0
1414000: global: SecBuf : Fill empty
1415000: system.cpu.iew.lsq.thread0: In Writeback store
1415000: global: SecBuf : Sec Buf fill pointer reset 0
1415000: global: SecBuf : Fill empty
1416000: system.cpu.iew.lsq.thread0: In Writeback store
1416000: global: SecBuf : Sec Buf fill pointer reset 0
1416000: global: SecBuf : Fill empty
1417000: system.cpu.iew.lsq.thread0: In Writeback store
1417000: global: SecBuf : Sec Buf fill pointer reset 0
1417000: global: SecBuf : Fill empty
1418000: system.cpu.iew.lsq.thread0: In Writeback store
1418000: global: SecBuf : Sec Buf fill pointer reset 0
1418000: global: SecBuf : Fill empty
1419000: system.cpu.iew.lsq.thread0: In Writeback store
1419000: global: SecBuf : Sec Buf fill pointer reset 0
1419000: global: SecBuf : Fill empty
1420000: system.cpu.iew.lsq.thread0: In Writeback store
1420000: global: SecBuf : Sec Buf fill pointer reset 0
1420000: global: SecBuf : Fill empty
1421000: system.cpu.iew.lsq.thread0: In Writeback store
1421000: global: SecBuf : Sec Buf fill pointer reset 0
1421000: global: SecBuf : Fill empty
1422000: system.cpu.iew.lsq.thread0: In Writeback store
1422000: global: SecBuf : Sec Buf fill pointer reset 0
1422000: global: SecBuf : Fill empty
1423000: system.cpu.iew.lsq.thread0: In Writeback store
1423000: global: SecBuf : Sec Buf fill pointer reset 0
1423000: global: SecBuf : Fill empty
1424000: system.cpu.iew.lsq.thread0: In Writeback store
1424000: global: SecBuf : Sec Buf fill pointer reset 0
1424000: global: SecBuf : Fill empty
1425000: system.cpu.iew.lsq.thread0: In Writeback store
1425000: global: SecBuf : Sec Buf fill pointer reset 0
1425000: global: SecBuf : Fill empty
1426000: system.cpu.iew.lsq.thread0: In Writeback store
1426000: global: SecBuf : Sec Buf fill pointer reset 0
1426000: global: SecBuf : Fill empty
1427000: system.cpu.iew.lsq.thread0: In Writeback store
1427000: global: SecBuf : Sec Buf fill pointer reset 0
1427000: global: SecBuf : Fill empty
1428000: system.cpu.iew.lsq.thread0: In Writeback store
1428000: global: SecBuf : Sec Buf fill pointer reset 0
1428000: global: SecBuf : Fill empty
1429000: system.cpu.iew.lsq.thread0: In Writeback store
1429000: global: SecBuf : Sec Buf fill pointer reset 0
1429000: global: SecBuf : Fill empty
1430000: system.cpu.iew.lsq.thread0: In Writeback store
1430000: global: SecBuf : Sec Buf fill pointer reset 0
1430000: global: SecBuf : Fill empty
1431000: system.cpu.iew.lsq.thread0: In Writeback store
1431000: global: SecBuf : Sec Buf fill pointer reset 0
1431000: global: SecBuf : Fill empty
1432000: system.cpu.iew.lsq.thread0: In Writeback store
1432000: global: SecBuf : Sec Buf fill pointer reset 0
1432000: global: SecBuf : Fill empty
1433000: system.cpu.iew.lsq.thread0: In Writeback store
1433000: global: SecBuf : Sec Buf fill pointer reset 0
1433000: global: SecBuf : Fill empty
1434000: system.cpu.iew.lsq.thread0: In Writeback store
1434000: global: SecBuf : Sec Buf fill pointer reset 0
1434000: global: SecBuf : Fill empty
1435000: system.cpu.iew.lsq.thread0: In Writeback store
1435000: global: SecBuf : Sec Buf fill pointer reset 0
1435000: global: SecBuf : Fill empty
1436000: system.cpu.iew.lsq.thread0: In Writeback store
1436000: global: SecBuf : Sec Buf fill pointer reset 0
1436000: global: SecBuf : Fill empty
1437000: system.cpu.iew.lsq.thread0: In Writeback store
1437000: global: SecBuf : Sec Buf fill pointer reset 0
1437000: global: SecBuf : Fill empty
1438000: system.cpu.iew.lsq.thread0: In Writeback store
1438000: global: SecBuf : Sec Buf fill pointer reset 0
1438000: global: SecBuf : Fill empty
1439000: system.cpu.iew.lsq.thread0: In Writeback store
1439000: global: SecBuf : Sec Buf fill pointer reset 0
1439000: global: SecBuf : Fill empty
1440000: system.cpu.iew.lsq.thread0: In Writeback store
1440000: global: SecBuf : Sec Buf fill pointer reset 0
1440000: global: SecBuf : Fill empty
1441000: system.cpu.iew.lsq: Packet response for sec buf fill = 0
1441000: system.cpu.iew.lsq.thread0: DeepaliLSQ: Don't update entry in theSecurity buffer Addr:0xbf360, data:0 [sn:220] 0
1441000: system.cpu.iew.lsq.thread0: In Writeback store
1441000: global: SecBuf : Sec Buf fill pointer reset 0
1441000: global: SecBuf : Fill empty
1441000: system.cpu.iew.lsq.thread0: D-Cache: Writing back store idx:2 PC:(0x40154e=>0x401555).(1=>2) to Addr:0xbdf88, data:0x58 [sn:227]
1441000: system.cpu.dcache.cpu_side: Cache : Recv Packet
1441000: system.cpu.dcache.cpu_side: Recv Packet Non SecBuf Fill SecBufFill = 0, SpeculativeRead = 0
1441000: system.cpu.dcache.cpu_side: Received Packet Non SecBuf Fill
1441000: system.cpu.iew.lsq.thread0: send packet
1442000: system.cpu.iew.lsq.thread0: In Writeback store
1442000: global: SecBuf : Sec Buf fill pointer reset 0
1442000: global: SecBuf : Fill empty
1443000: system.cpu.dcache: Found a miss for:WriteReq [bdf88:bdf8f]
1443000: system.l2cache.cpu_side: Cache : Recv Packet
1443000: system.l2cache.cpu_side: Recv Packet Non SecBuf Fill SecBufFill = 0, SpeculativeRead = 0
1443000: system.l2cache.cpu_side: Received Packet Non SecBuf Fill
1443000: system.cpu.iew.lsq.thread0: In Writeback store
1443000: global: SecBuf : Sec Buf fill pointer reset 0
1443000: global: SecBuf : Fill empty
1444000: system.cpu.iew.lsq.thread0: In Writeback store
1444000: global: SecBuf : Sec Buf fill pointer reset 0
1444000: global: SecBuf : Fill empty
1445000: system.cpu.iew.lsq.thread0: In Writeback store
1445000: global: SecBuf : Sec Buf fill pointer reset 0
1445000: global: SecBuf : Fill empty
1446000: system.cpu.iew.lsq.thread0: In Writeback store
1446000: global: SecBuf : Sec Buf fill pointer reset 0
1446000: global: SecBuf : Fill empty
1447000: system.cpu.iew.lsq.thread0: In Writeback store
1447000: global: SecBuf : Sec Buf fill pointer reset 0
1447000: global: SecBuf : Fill empty
1448000: system.cpu.iew.lsq.thread0: In Writeback store
1448000: global: SecBuf : Sec Buf fill pointer reset 0
1448000: global: SecBuf : Fill empty
1449000: system.cpu.iew.lsq.thread0: In Writeback store
1449000: global: SecBuf : Sec Buf fill pointer reset 0
1449000: global: SecBuf : Fill empty
1450000: system.cpu.iew.lsq.thread0: In Writeback store
1450000: global: SecBuf : Sec Buf fill pointer reset 0
1450000: global: SecBuf : Fill empty
1451000: system.cpu.iew.lsq.thread0: In Writeback store
1451000: global: SecBuf : Sec Buf fill pointer reset 0
1451000: global: SecBuf : Fill empty
1452000: system.cpu.iew.lsq.thread0: In Writeback store
1452000: global: SecBuf : Sec Buf fill pointer reset 0
1452000: global: SecBuf : Fill empty
1453000: system.cpu.iew.lsq.thread0: In Writeback store
1453000: global: SecBuf : Sec Buf fill pointer reset 0
1453000: global: SecBuf : Fill empty
1454000: system.cpu.iew.lsq.thread0: In Writeback store
1454000: global: SecBuf : Sec Buf fill pointer reset 0
1454000: global: SecBuf : Fill empty
1455000: system.cpu.iew.lsq.thread0: In Writeback store
1455000: global: SecBuf : Sec Buf fill pointer reset 0
1455000: global: SecBuf : Fill empty
1456000: system.cpu.iew.lsq.thread0: In Writeback store
1456000: global: SecBuf : Sec Buf fill pointer reset 0
1456000: global: SecBuf : Fill empty
1457000: system.cpu.iew.lsq.thread0: In Writeback store
1457000: global: SecBuf : Sec Buf fill pointer reset 0
1457000: global: SecBuf : Fill empty
1458000: system.cpu.iew.lsq.thread0: In Writeback store
1458000: global: SecBuf : Sec Buf fill pointer reset 0
1458000: global: SecBuf : Fill empty
1459000: system.cpu.iew.lsq.thread0: In Writeback store
1459000: global: SecBuf : Sec Buf fill pointer reset 0
1459000: global: SecBuf : Fill empty
1460000: system.cpu.iew.lsq.thread0: In Writeback store
1460000: global: SecBuf : Sec Buf fill pointer reset 0
1460000: global: SecBuf : Fill empty
1461000: system.cpu.iew.lsq.thread0: In Writeback store
1461000: global: SecBuf : Sec Buf fill pointer reset 0
1461000: global: SecBuf : Fill empty
1462000: system.cpu.iew.lsq.thread0: In Writeback store
1462000: global: SecBuf : Sec Buf fill pointer reset 0
1462000: global: SecBuf : Fill empty
1463000: system.cpu.iew.lsq.thread0: In Writeback store
1463000: global: SecBuf : Sec Buf fill pointer reset 0
1463000: global: SecBuf : Fill empty
1464000: system.l2cache: Found a miss for:ReadExReq [bdf80:bdfbf]
1464000: system.cpu.iew.lsq.thread0: In Writeback store
1464000: global: SecBuf : Sec Buf fill pointer reset 0
1464000: global: SecBuf : Fill empty
1465000: system.cpu.iew.lsq.thread0: In Writeback store
1465000: global: SecBuf : Sec Buf fill pointer reset 0
1465000: global: SecBuf : Fill empty
1466000: system.cpu.iew.lsq.thread0: In Writeback store
1466000: global: SecBuf : Sec Buf fill pointer reset 0
1466000: global: SecBuf : Fill empty
1467000: system.cpu.iew.lsq.thread0: In Writeback store
1467000: global: SecBuf : Sec Buf fill pointer reset 0
1467000: global: SecBuf : Fill empty
1468000: system.cpu.iew.lsq.thread0: In Writeback store
1468000: global: SecBuf : Sec Buf fill pointer reset 0
1468000: global: SecBuf : Fill empty
1469000: system.cpu.iew.lsq.thread0: In Writeback store
1469000: global: SecBuf : Sec Buf fill pointer reset 0
1469000: global: SecBuf : Fill empty
1470000: system.cpu.iew.lsq.thread0: In Writeback store
1470000: global: SecBuf : Sec Buf fill pointer reset 0
1470000: global: SecBuf : Fill empty
1471000: system.cpu.iew.lsq.thread0: In Writeback store
1471000: global: SecBuf : Sec Buf fill pointer reset 0
1471000: global: SecBuf : Fill empty
1472000: system.cpu.iew.lsq.thread0: In Writeback store
1472000: global: SecBuf : Sec Buf fill pointer reset 0
1472000: global: SecBuf : Fill empty
1473000: system.cpu.iew.lsq.thread0: In Writeback store
1473000: global: SecBuf : Sec Buf fill pointer reset 0
1473000: global: SecBuf : Fill empty
1474000: system.cpu.iew.lsq.thread0: In Writeback store
1474000: global: SecBuf : Sec Buf fill pointer reset 0
1474000: global: SecBuf : Fill empty
1475000: system.cpu.icache.cpu_side: Cache : Recv Packet
1475000: system.cpu.icache.cpu_side: Recv Packet Non SecBuf Fill SecBufFill = 0, SpeculativeRead = 0
1475000: system.cpu.icache.cpu_side: Received Packet Non SecBuf Fill
1475000: system.cpu.iew.lsq.thread0: In Writeback store
1475000: global: SecBuf : Sec Buf fill pointer reset 0
1475000: global: SecBuf : Fill empty
1476000: system.cpu.iew.lsq.thread0: In Writeback store
1476000: global: SecBuf : Sec Buf fill pointer reset 0
1476000: global: SecBuf : Fill empty
1477000: system.cpu.icache: Found a miss for:ReadReq [1cb80:1cbbf] IF
1477000: system.l2cache.cpu_side: Cache : Recv Packet
1477000: system.l2cache.cpu_side: Recv Packet Non SecBuf Fill SecBufFill = 0, SpeculativeRead = 0
1477000: system.l2cache.cpu_side: Received Packet Non SecBuf Fill
1477000: system.cpu.iew.lsq.thread0: In Writeback store
1477000: global: SecBuf : Sec Buf fill pointer reset 0
1477000: global: SecBuf : Fill empty
1478000: global: SecBuf : Security Buffer of size = 16has 2 entries
1478000: system.cpu.iew.lsq.thread0: DeepaliLSQ: Add blank/invalid entry to theSecurity buffer Addr:0xbf340, data:0 [sn:268] 1 1
1478000: global: SecBuf : Element added [sn:268]
1478000: system.cpu.dcache.cpu_side: Cache : Recv Packet
1478000: system.cpu.dcache.cpu_side: Recv Packet Non SecBuf Fill SecBufFill = 0, SpeculativeRead = 1
1478000: system.cpu.dcache.cpu_side: Received Packet Non SecBuf Fill
1478000: system.cpu.iew.lsq.thread0: send packet
1478000: global: SecBuf : Security Buffer of size = 16has 3 entries
1478000: system.cpu.iew.lsq.thread0: DeepaliLSQ: Add blank/invalid entry to theSecurity buffer Addr:0xbdf98, data:0x1 [sn:270] 1 1
1478000: global: SecBuf : Element added [sn:270]
1478000: system.cpu.dcache.cpu_side: Cache : Recv Packet
1478000: system.cpu.dcache.cpu_side: Recv Packet Non SecBuf Fill SecBufFill = 0, SpeculativeRead = 1
1478000: system.cpu.dcache.cpu_side: Received Packet Non SecBuf Fill
1478000: system.cpu.iew.lsq.thread0: send packet
1478000: global: SecBuf : Security Buffer of size = 16has 4 entries
1478000: system.cpu.iew.lsq.thread0: DeepaliLSQ: Add blank/invalid entry to theSecurity buffer Addr:0xe1cb0, data:0 [sn:275] 1 1
1478000: global: SecBuf : Element added [sn:275]
1478000: system.cpu.dcache.cpu_side: Cache : Recv Packet
1478000: system.cpu.dcache.cpu_side: Recv Packet Non SecBuf Fill SecBufFill = 0, SpeculativeRead = 1
1478000: system.cpu.dcache.cpu_side: Received Packet Non SecBuf Fill
1478000: system.cpu.iew.lsq.thread0: send packet
1478000: system.cpu.iew.lsq.thread0: In Writeback store
1478000: global: SecBuf : Sec Buf fill pointer reset 0
1478000: global: SecBuf : Fill empty
1479000: global: SecBuf : Security Buffer of size = 16has 5 entries
1479000: system.cpu.iew.lsq.thread0: DeepaliLSQ: Add blank/invalid entry to theSecurity buffer Addr:0xe1bc0, data:0 [sn:278] 1 1
1479000: global: SecBuf : Element added [sn:278]
1479000: system.cpu.dcache.cpu_side: Cache : Recv Packet
1479000: system.cpu.dcache.cpu_side: Recv Packet Non SecBuf Fill SecBufFill = 0, SpeculativeRead = 1
1479000: system.cpu.dcache.cpu_side: Received Packet Non SecBuf Fill
1479000: system.cpu.iew.lsq.thread0: send packet
1479000: global: SecBuf : Security Buffer of size = 16has 6 entries
1479000: system.cpu.iew.lsq.thread0: DeepaliLSQ: Add blank/invalid entry to theSecurity buffer Addr:0xbdf80, data:0 [sn:280] 1 1
1479000: global: SecBuf : Element added [sn:280]
1479000: system.cpu.dcache.cpu_side: Cache : Recv Packet
1479000: system.cpu.dcache.cpu_side: Recv Packet Non SecBuf Fill SecBufFill = 0, SpeculativeRead = 1
1479000: system.cpu.dcache.cpu_side: Received Packet Non SecBuf Fill
1479000: system.cpu.iew.lsq.thread0: send packet
1479000: system.cpu.iew.lsq.thread0: In Writeback store
1479000: global: SecBuf : Sec Buf fill pointer reset 0
1479000: global: SecBuf : Fill empty
1480000: system.cpu.dcache: Found a miss for:SpeculativeReadReq [e1cb0:e1cb3]
1480000: system.l2cache.cpu_side: Cache : Recv Packet
1480000: system.l2cache.cpu_side: Recv Packet Non SecBuf Fill SecBufFill = 0, SpeculativeRead = 0
1480000: system.l2cache.cpu_side: Received Packet Non SecBuf Fill
1480000: system.cpu.iew.lsq: Packet response for sec buf fill = 0
1480000: system.cpu.iew.lsq.thread0: DeepaliLSQ: Update entry in theSecurity buffer Addr:0xe2e80, data:0x21 [sn:255] 1
1480000: global: SecBuf : Element updated[sn:255]
1480000: global: SecBuf : Security Buffer of size = 16has 7 entries
1480000: system.cpu.iew.lsq.thread0: DeepaliLSQ: Add blank/invalid entry to theSecurity buffer Addr:0xe1ba0, data:0xb0 [sn:284] 1 1
1480000: global: SecBuf : Element added [sn:284]
1480000: system.cpu.dcache.cpu_side: Cache : Recv Packet
1480000: system.cpu.dcache.cpu_side: Recv Packet Non SecBuf Fill SecBufFill = 0, SpeculativeRead = 1
1480000: system.cpu.dcache.cpu_side: Received Packet Non SecBuf Fill
1480000: system.cpu.iew.lsq.thread0: send packet
1480000: global: SecBuf : Security Buffer of size = 16has 8 entries
1480000: system.cpu.iew.lsq.thread0: DeepaliLSQ: Add blank/invalid entry to theSecurity buffer Addr:0xe1be0, data:0x20 [sn:288] 1 1
1480000: global: SecBuf : Element added [sn:288]
1480000: system.cpu.dcache.cpu_side: Cache : Recv Packet
1480000: system.cpu.iew.lsq.thread0: In Writeback store
1480000: global: SecBuf : Sec Buf fill pointer reset 0
1480000: global: SecBuf : Fill empty
1480001: system.cpu.iew.lsq: Packet response for sec buf fill = 0
1480001: system.cpu.iew.lsq.thread0: DeepaliLSQ: Update entry in theSecurity buffer Addr:0xbf340, data:0 [sn:268] 1
1480001: global: SecBuf : Element updated[sn:268]
1481000: system.l2cache.cpu_side: Cache : Recv Packet
1481000: system.l2cache.cpu_side: Recv Packet Non SecBuf Fill SecBufFill = 0, SpeculativeRead = 0
1481000: system.l2cache.cpu_side: Received Packet Non SecBuf Fill
1481000: system.cpu.iew.lsq.thread0: In Writeback store
1481000: global: SecBuf : Sec Buf fill pointer reset 0
1481000: global: SecBuf : Fill empty
1482000: system.cpu.dcache: Found a miss for:SpeculativeReadReq [e1ba0:e1ba7]
1482000: system.cpu.dcache: Found a miss for:SpeculativeReadReq [e1ba0:e1ba7]
1482000: system.l2cache.cpu_side: Cache : Recv Packet
1482000: system.l2cache.cpu_side: Recv Packet Non SecBuf Fill SecBufFill = 0, SpeculativeRead = 0
1482000: system.l2cache.cpu_side: Received Packet Non SecBuf Fill
1482000: system.cpu.iew.lsq.thread0: In Writeback store
1482000: global: SecBuf : Sec Buf fill pointer reset 0
1482000: global: SecBuf : Fill empty
1483000: system.cpu.iew.lsq.thread0: In Writeback store
1483000: global: SecBuf : Sec Buf fill pointer reset 0
1483000: global: SecBuf : Fill empty
1483000: system.cpu.iew.lsq.thread0: DeepaliLSQ: Committing head load instruction,PC (0x41cb20=>0x41cb23).(0=>1), [sn:255]
1483000: global: SecBuf : Element committed[sn:255]
1484000: system.cpu.iew.lsq.thread0: In Writeback store
1484000: global: SecBuf : Sec Buf fill pointer reset 0
1484000: global: SecBuf : Fill not empty
1484000: global: SecBuf : Element to be issues asfill [sn:255]
1484000: system.cpu.iew.lsq.thread0: DeepaliD-Cache: Security buffer writingback to Addr:0xe2e80, data:0x21 [sn:255] Fill from SecBuf index = 0
1484000: system.cpu.iew.lsq.thread0: DeepaliD-Cache: Security buffer writingback to Addr:0xe2e80, data:0x21 [sn:255], IsSecBufFill 1
1484000: system.cpu.iew.lsq.thread0: DeepaliD-Cache became blockedwhen writing [sn:255], will retry later
1484000: global: SecBuf : Incremented secBuf fill pointer 1
1484000: global: SecBuf : Fill empty
1485000: system.cpu.iew.lsq.thread0: In Writeback store
