gem5 Simulator System.  http://gem5.org
gem5 is copyrighted software; use the --copyright option for details.

gem5 compiled Apr 26 2020 23:41:41
gem5 started Apr 26 2020 23:53:17
gem5 executing on padthai.ece.local.cmu.edu, pid 61002
command line: build/X86/gem5.opt --debug-flag=AshishBasic configs/learning_gem5/part1/two_level.py my_progs/spectre

Global frequency set at 1000000000000 ticks per second
      0: global: SecBuf : Reset the security buffer
      0: global: SecBuf : Security Buffer Constructed with size= 16
      0: system.cpu: CPU construction starts
      0: system.cpu: CPU Setting secbuf
      0: system.cpu.iew.lsq.thread0: Setting secbuf for the threads
      0: system.cpu: CPU Setting secbuf DONE
      0: system.cpu: CPU construction starts
Beginning simulation!
      0: system.cpu.iew.lsq.thread0: In Writeback store
   1000: system.cpu.iew.lsq.thread0: In Writeback store
   2000: system.cpu.iew.lsq.thread0: In Writeback store
   3000: system.cpu.iew.lsq.thread0: In Writeback store
   4000: system.cpu.iew.lsq.thread0: In Writeback store
   5000: system.cpu.iew.lsq.thread0: In Writeback store
   6000: system.cpu.iew.lsq.thread0: In Writeback store
   7000: system.cpu.iew.lsq.thread0: In Writeback store
   8000: system.cpu.iew.lsq.thread0: In Writeback store
   9000: system.cpu.iew.lsq.thread0: In Writeback store
  10000: system.cpu.iew.lsq.thread0: In Writeback store
  11000: system.cpu.iew.lsq.thread0: In Writeback store
 110000: system.cpu.iew.lsq.thread0: In Writeback store
 111000: system.cpu.iew.lsq.thread0: In Writeback store
 112000: system.cpu.iew.lsq.thread0: In Writeback store
 113000: system.cpu.iew.lsq.thread0: In Writeback store
 114000: system.cpu.iew.lsq.thread0: In Writeback store
 115000: global: SecBuf : Security Buffer of size = 16has 0 entries
 115000: system.cpu.iew.lsq.thread0: DeepaliLSQ: Add blank/invalid entry to theSecurity buffer Addr:0xe2e60, data:0xe0 [sn:3]
 115000: global: SecBuf : Element added [sn:3]
 115000: system.cpu.iew.lsq.thread0: In Writeback store
 116000: system.cpu.iew.lsq.thread0: In Writeback store
 117000: system.cpu.iew.lsq.thread0: In Writeback store
 118000: system.cpu.iew.lsq.thread0: In Writeback store
 119000: system.cpu.iew.lsq.thread0: In Writeback store
 120000: system.cpu.iew.lsq.thread0: In Writeback store
 121000: system.cpu.iew.lsq.thread0: In Writeback store
 122000: system.cpu.iew.lsq.thread0: In Writeback store
 123000: system.cpu.iew.lsq.thread0: In Writeback store
 124000: system.cpu.iew.lsq.thread0: In Writeback store
 125000: system.cpu.iew.lsq.thread0: In Writeback store
 126000: system.cpu.iew.lsq.thread0: In Writeback store
 127000: system.cpu.iew.lsq.thread0: In Writeback store
 128000: system.cpu.iew.lsq.thread0: In Writeback store
 129000: system.cpu.iew.lsq.thread0: In Writeback store
 130000: system.cpu.iew.lsq.thread0: In Writeback store
 224000: system.cpu.iew.lsq.thread0: DeepaliLSQ: Update entry in theSecurity buffer Addr:0xe2e60, data:0x1 [sn:3]
 224000: global: SecBuf : Element updated[sn:3]
 224000: system.cpu.iew.lsq.thread0: In Writeback store
 225000: system.cpu.iew.lsq.thread0: In Writeback store
 226000: system.cpu.iew.lsq.thread0: In Writeback store
 227000: system.cpu.iew.lsq.thread0: In Writeback store
 227000: system.cpu.iew.lsq.thread0: DeepaliLSQ: Committing head load instruction,PC (0x400ed2=>0x400ed3).(0=>1), [sn:3]
 227000: global: SecBuf : Element committed[sn:3]
 228000: system.cpu.iew.lsq.thread0: In Writeback store
 228000: global: SecBuf : Element to be issues asfill [sn:3]
 228000: system.cpu.iew.lsq.thread0: DeepaliD-Cache: Security buffer writingback to Addr:0xe2e60, data:0x1 [sn:3]
 228000: system.cpu.iew.lsq.thread0: DeepaliD-Cache: Security buffer writingback to Addr:0xe2e60, data:0x1 [sn:3], IsSecBufFill 1
 228000: global: SecBuf : Element invalidated postfill [sn:3]
 229000: system.cpu.iew.lsq.thread0: In Writeback store
