gem5 Simulator System.  http://gem5.org
gem5 is copyrighted software; use the --copyright option for details.

gem5 compiled May  2 2020 19:00:09
gem5 started May  2 2020 19:08:50
gem5 executing on padthai.ece.local.cmu.edu, pid 255843
command line: build/X86/gem5.opt --debug-flag=AshishBasic configs/learning_gem5/part1/two_level.py my_progs/spectre

Global frequency set at 1000000000000 ticks per second
      0: global: SecBuf : Reset the security buffer
      0: global: SecBuf : Security Buffer Constructed with size= 16
      0: system.cpu: CPU construction starts
      0: system.cpu: CPU Setting secbuf
      0: system.cpu.iew.lsq.thread0: Setting secbuf for the threads
      0: system.cpu: CPU Setting secbuf DONE
      0: system.cpu: CPU construction starts
      0: system.cpu.dcache: Base cache created
      0: system.cpu.dcache: Cache block created
      0: system.cpu.icache: Base cache created
      0: system.cpu.icache: Cache block created
      0: system.l2cache: Base cache created
      0: system.l2cache: Cache block created
Beginning simulation!
      0: system.cpu.icache.cpu_side: Recv Packet
      0: system.cpu.icache.cpu_side: Recv Packet Non SecBuf Fill SecBufFill = 0, SpeculativeRead = 0
      0: system.cpu.icache.cpu_side: Recv Packet Non SecBuf Fill 1
      0: system.cpu.iew.lsq.thread0: In Writeback store
      0: global: SecBuf : Sec Buf fill pointer reset 0
      0: global: SecBuf : Fill empty
      0: system.cpu.iew.lsq.thread0: point 7
   1000: system.cpu.iew.lsq.thread0: In Writeback store
   1000: global: SecBuf : Sec Buf fill pointer reset 0
   1000: global: SecBuf : Fill empty
   1000: system.cpu.iew.lsq.thread0: point 7
   2000: system.cpu.icache: Found a miss for:ReadReq [ec0:eff] IF
   2000: system.l2cache.cpu_side: Recv Packet
   2000: system.l2cache.cpu_side: Recv Packet Non SecBuf Fill SecBufFill = 0, SpeculativeRead = 0
   2000: system.l2cache.cpu_side: Recv Packet Non SecBuf Fill 1
   2000: system.cpu.icache.cpu_side: Recv Packet
   2000: system.cpu.icache.cpu_side: Recv Packet Non SecBuf Fill SecBufFill = 0, SpeculativeRead = 0
   2000: system.cpu.icache.cpu_side: Recv Packet Non SecBuf Fill 1
   2000: system.cpu.iew.lsq.thread0: In Writeback store
   2000: global: SecBuf : Sec Buf fill pointer reset 0
   2000: global: SecBuf : Fill empty
   2000: system.cpu.iew.lsq.thread0: point 7
   3000: system.cpu.iew.lsq.thread0: In Writeback store
   3000: global: SecBuf : Sec Buf fill pointer reset 0
   3000: global: SecBuf : Fill empty
   3000: system.cpu.iew.lsq.thread0: point 7
   4000: system.cpu.iew.lsq.thread0: In Writeback store
   4000: global: SecBuf : Sec Buf fill pointer reset 0
   4000: global: SecBuf : Fill empty
   4000: system.cpu.iew.lsq.thread0: point 7
   5000: system.cpu.iew.lsq.thread0: In Writeback store
   5000: global: SecBuf : Sec Buf fill pointer reset 0
   5000: global: SecBuf : Fill empty
   5000: system.cpu.iew.lsq.thread0: point 7
   6000: system.cpu.iew.lsq.thread0: In Writeback store
   6000: global: SecBuf : Sec Buf fill pointer reset 0
   6000: global: SecBuf : Fill empty
   6000: system.cpu.iew.lsq.thread0: point 7
   7000: system.cpu.iew.lsq.thread0: In Writeback store
   7000: global: SecBuf : Sec Buf fill pointer reset 0
   7000: global: SecBuf : Fill empty
   7000: system.cpu.iew.lsq.thread0: point 7
   8000: system.cpu.iew.lsq.thread0: In Writeback store
   8000: global: SecBuf : Sec Buf fill pointer reset 0
   8000: global: SecBuf : Fill empty
   8000: system.cpu.iew.lsq.thread0: point 7
   9000: system.cpu.iew.lsq.thread0: In Writeback store
   9000: global: SecBuf : Sec Buf fill pointer reset 0
   9000: global: SecBuf : Fill empty
   9000: system.cpu.iew.lsq.thread0: point 7
  10000: system.cpu.iew.lsq.thread0: In Writeback store
  10000: global: SecBuf : Sec Buf fill pointer reset 0
  10000: global: SecBuf : Fill empty
  10000: system.cpu.iew.lsq.thread0: point 7
  11000: system.cpu.iew.lsq.thread0: In Writeback store
  11000: global: SecBuf : Sec Buf fill pointer reset 0
  11000: global: SecBuf : Fill empty
  11000: system.cpu.iew.lsq.thread0: point 7
  23000: system.l2cache: Found a miss for:ReadSharedReq [ec0:eff] IF
 110000: system.cpu.iew.lsq.thread0: In Writeback store
 110000: global: SecBuf : Sec Buf fill pointer reset 0
 110000: global: SecBuf : Fill empty
 110000: system.cpu.iew.lsq.thread0: point 7
 111000: system.cpu.iew.lsq.thread0: In Writeback store
 111000: global: SecBuf : Sec Buf fill pointer reset 0
 111000: global: SecBuf : Fill empty
 111000: system.cpu.iew.lsq.thread0: point 7
 112000: system.cpu.iew.lsq.thread0: In Writeback store
 112000: global: SecBuf : Sec Buf fill pointer reset 0
 112000: global: SecBuf : Fill empty
 112000: system.cpu.iew.lsq.thread0: point 7
 113000: system.cpu.iew.lsq.thread0: In Writeback store
 113000: global: SecBuf : Sec Buf fill pointer reset 0
 113000: global: SecBuf : Fill empty
 113000: system.cpu.iew.lsq.thread0: point 7
 114000: system.cpu.iew.lsq.thread0: In Writeback store
 114000: global: SecBuf : Sec Buf fill pointer reset 0
 114000: global: SecBuf : Fill empty
 114000: system.cpu.iew.lsq.thread0: point 7
 115000: global: SecBuf : Security Buffer of size = 16has 0 entries
 115000: global: SecBuf : Element added [sn:3]
 115000: system.cpu.dcache.cpu_side: Recv Packet
 115000: system.cpu.dcache.cpu_side: Recv Packet Non SecBuf Fill SecBufFill = 0, SpeculativeRead = 1
 115000: system.cpu.dcache.cpu_side: Recv Packet Non SecBuf Fill 1
 115000: system.cpu.iew.lsq.thread0: send packet
 115000: system.cpu.iew.lsq.thread0: In Writeback store
 115000: global: SecBuf : Sec Buf fill pointer reset 0
 115000: global: SecBuf : Fill empty
 115000: system.cpu.iew.lsq.thread0: point 7
 116000: system.cpu.iew.lsq.thread0: In Writeback store
 116000: global: SecBuf : Sec Buf fill pointer reset 0
 116000: global: SecBuf : Fill empty
 116000: system.cpu.iew.lsq.thread0: point 7
 117000: system.cpu.dcache: Found a miss for:SpeculativeReadReq [e2e60:e2e67]
 117000: system.l2cache.cpu_side: Recv Packet
 117000: system.l2cache.cpu_side: Recv Packet Non SecBuf Fill SecBufFill = 0, SpeculativeRead = 0
 117000: system.l2cache.cpu_side: Recv Packet Non SecBuf Fill 1
 117000: system.cpu.iew.lsq.thread0: In Writeback store
 117000: global: SecBuf : Sec Buf fill pointer reset 0
 117000: global: SecBuf : Fill empty
 117000: system.cpu.iew.lsq.thread0: point 7
 118000: system.cpu.iew.lsq.thread0: In Writeback store
 118000: global: SecBuf : Sec Buf fill pointer reset 0
 118000: global: SecBuf : Fill empty
 118000: system.cpu.iew.lsq.thread0: point 7
 119000: system.cpu.iew.lsq.thread0: In Writeback store
 119000: global: SecBuf : Sec Buf fill pointer reset 0
 119000: global: SecBuf : Fill empty
 119000: system.cpu.iew.lsq.thread0: point 7
 120000: system.cpu.iew.lsq.thread0: In Writeback store
 120000: global: SecBuf : Sec Buf fill pointer reset 0
 120000: global: SecBuf : Fill empty
 120000: system.cpu.iew.lsq.thread0: point 7
 121000: system.cpu.icache.cpu_side: Recv Packet
 121000: system.cpu.icache.cpu_side: Recv Packet Non SecBuf Fill SecBufFill = 0, SpeculativeRead = 0
 121000: system.cpu.icache.cpu_side: Recv Packet Non SecBuf Fill 1
 121000: system.cpu.iew.lsq.thread0: In Writeback store
 121000: global: SecBuf : Sec Buf fill pointer reset 0
 121000: global: SecBuf : Fill empty
 121000: system.cpu.iew.lsq.thread0: point 7
 122000: system.cpu.iew.lsq.thread0: In Writeback store
 122000: global: SecBuf : Sec Buf fill pointer reset 0
 122000: global: SecBuf : Fill empty
 122000: system.cpu.iew.lsq.thread0: point 7
 123000: system.cpu.icache: Found a miss for:ReadReq [1740:177f] IF
 123000: system.l2cache.cpu_side: Recv Packet
 123000: system.l2cache.cpu_side: Recv Packet Non SecBuf Fill SecBufFill = 0, SpeculativeRead = 0
 123000: system.l2cache.cpu_side: Recv Packet Non SecBuf Fill 1
 123000: system.cpu.iew.lsq.thread0: In Writeback store
 123000: global: SecBuf : Sec Buf fill pointer reset 0
 123000: global: SecBuf : Fill empty
 123000: system.cpu.iew.lsq.thread0: point 7
 124000: system.cpu.iew.lsq.thread0: In Writeback store
 124000: global: SecBuf : Sec Buf fill pointer reset 0
 124000: global: SecBuf : Fill empty
 124000: system.cpu.iew.lsq.thread0: point 7
 125000: system.cpu.iew.lsq.thread0: In Writeback store
 125000: global: SecBuf : Sec Buf fill pointer reset 0
 125000: global: SecBuf : Fill empty
 125000: system.cpu.iew.lsq.thread0: point 7
 126000: system.cpu.iew.lsq.thread0: In Writeback store
 126000: global: SecBuf : Sec Buf fill pointer reset 0
 126000: global: SecBuf : Fill empty
 126000: system.cpu.iew.lsq.thread0: point 7
 127000: system.cpu.iew.lsq.thread0: In Writeback store
 127000: global: SecBuf : Sec Buf fill pointer reset 0
 127000: global: SecBuf : Fill empty
 127000: system.cpu.iew.lsq.thread0: point 7
 128000: system.cpu.iew.lsq.thread0: In Writeback store
 128000: global: SecBuf : Sec Buf fill pointer reset 0
 128000: global: SecBuf : Fill empty
 128000: system.cpu.iew.lsq.thread0: point 7
 129000: system.cpu.iew.lsq.thread0: In Writeback store
 129000: global: SecBuf : Sec Buf fill pointer reset 0
 129000: global: SecBuf : Fill empty
 129000: system.cpu.iew.lsq.thread0: point 7
 130000: system.cpu.iew.lsq.thread0: In Writeback store
 130000: global: SecBuf : Sec Buf fill pointer reset 0
 130000: global: SecBuf : Fill empty
 130000: system.cpu.iew.lsq.thread0: point 7
 138000: system.l2cache: Found a miss for:ReadSharedReq [e2e40:e2e7f]
 144000: system.l2cache: Found a miss for:ReadSharedReq [1740:177f] IF
 224000: system.l2cache.cpu_side: Recv Packet
 224000: system.l2cache.cpu_side: Recv Packet Non SecBuf Fill SecBufFill = 0, SpeculativeRead = 0
 224000: system.l2cache.cpu_side: Recv Packet Non SecBuf Fill 1
 224000: system.cpu.iew.lsq: Packet response for sec buf fill = 0
 224000: system.cpu.iew.lsq.thread0: DeepaliLSQ: Update entry in theSecurity buffer Addr:0xe2e60, data:0x1 [sn:3] 1
 224000: global: SecBuf : Element updated[sn:3]
 224000: system.cpu.iew.lsq.thread0: In Writeback store
 224000: global: SecBuf : Sec Buf fill pointer reset 0
 224000: global: SecBuf : Fill empty
 224000: system.cpu.iew.lsq.thread0: point 7
 225000: system.cpu.iew.lsq.thread0: In Writeback store
 225000: global: SecBuf : Sec Buf fill pointer reset 0
 225000: global: SecBuf : Fill empty
 225000: system.cpu.iew.lsq.thread0: point 7
 226000: system.cpu.iew.lsq.thread0: In Writeback store
 226000: global: SecBuf : Sec Buf fill pointer reset 0
 226000: global: SecBuf : Fill empty
 226000: system.cpu.iew.lsq.thread0: point 7
 227000: system.cpu.iew.lsq.thread0: In Writeback store
 227000: global: SecBuf : Sec Buf fill pointer reset 0
 227000: global: SecBuf : Fill empty
 227000: system.cpu.iew.lsq.thread0: point 7
 227000: system.cpu.iew.lsq.thread0: DeepaliLSQ: Committing head load instruction,PC (0x400ed2=>0x400ed3).(0=>1), [sn:3]
 227000: global: SecBuf : Element committed[sn:3]
 228000: system.cpu.iew.lsq.thread0: In Writeback store
 228000: global: SecBuf : Sec Buf fill pointer reset 0
 228000: global: SecBuf : Fill not empty
 228000: global: SecBuf : Element to be issues asfill [sn:3]
 228000: system.cpu.iew.lsq.thread0: DeepaliD-Cache: Security buffer writingback to Addr:0xe2e60, data:0x1 [sn:3] Fill from SecBuf index = 0
 228000: system.cpu.iew.lsq.thread0: point x1
 228000: system.cpu.iew.lsq.thread0: point x2.3
 228000: system.cpu.iew.lsq.thread0: point x3
 228000: system.cpu.iew.lsq.thread0: DeepaliD-Cache: Security buffer writingback to Addr:0xe2e60, data:0x1 [sn:3], IsSecBufFill 1
 228000: system.cpu.iew.lsq.thread0: point x4
 228000: system.cpu.iew.lsq.thread0: point x5
 228000: system.cpu.iew.lsq.thread0: isSecBufFill packet = 1
 228000: system.cpu.dcache.cpu_side: Recv Packet
 228000: system.cpu.dcache.cpu_side: SecBuf fill Request
