gem5 Simulator System.  http://gem5.org
gem5 is copyrighted software; use the --copyright option for details.

gem5 compiled Mar 21 2020 02:05:11
gem5 started Apr  4 2020 20:31:11
gem5 executing on ece005.ece.local.cmu.edu, pid 13779
command line: build/X86/gem5.opt --debug-flag=AshishBasic configs/learning_gem5/part1/two_level.py my_progs/spectre

Global frequency set at 1000000000000 ticks per second
      0: system.cpu: [cpu.cc] Creating O3CPU object.
Beginning simulation!
 115000: system.cpu.iew: [iew_impl.h] Speculative load  115000: system.cpu.iew: PC (0x400ed2=>0x400ed3).(0=>1), [tid:0] [sn:3].
 226000: system.cpu.commit: [commit_impl.hh] Committing  226000: system.cpu.commit: PC (0x400ed2=>0x400ed3).(0=>1), [tid:0] [sn:3].
 551000: system.cpu.iew: [iew_impl.h] Speculative load  551000: system.cpu.iew: PC (0x4017a9=>0x4017b0).(2=>3), [tid:0] [sn:117].
 675000: system.cpu.commit: [commit_impl.hh] Committing  675000: system.cpu.commit: PC (0x4017a9=>0x4017b0).(2=>3), [tid:0] [sn:117].
 684000: system.cpu.iew: [iew_impl.h] Speculative load  684000: system.cpu.iew: PC (0x4017d3=>0x4017d9).(1=>2), [tid:0] [sn:134].
 687000: system.cpu.iew: [iew_impl.h] Speculative load  687000: system.cpu.iew: PC (0x4017f8=>0x4017ff).(2=>3), [tid:0] [sn:152].
 688000: system.cpu.commit: [commit_impl.hh] Committing  688000: system.cpu.commit: PC (0x4017d3=>0x4017d9).(1=>2), [tid:0] [sn:134].
 690000: system.cpu.iew.lsq.thread0: [lsq_unit_impl.hh] Misprediction. Squashing  690000: system.cpu.iew.lsq.thread0: PC (0x4017f8=>0x4017ff).(2=>3), [tid:0] [sn:152].
 691000: system.cpu.commit: [commit_impl.hh] Squashing  691000: system.cpu.commit: PC (0x4017f8=>0x4017ff).(2=>3), [tid:0] [sn:152].
 791000: system.cpu.iew: [iew_impl.h] Speculative load  791000: system.cpu.iew: PC (0x401910=>0x401914).(0=>1), [tid:0] [sn:154].
 791000: system.cpu.iew: [iew_impl.h] Speculative load  791000: system.cpu.iew: PC (0x401914=>0x401919).(0=>1), [tid:0] [sn:155].
 791000: system.cpu.iew: [iew_impl.h] Speculative load  791000: system.cpu.iew: PC (0x401919=>0x40191e).(0=>1), [tid:0] [sn:156].
 791000: system.cpu.iew: [iew_impl.h] Speculative load  791000: system.cpu.iew: PC (0x40191e=>0x401923).(0=>1), [tid:0] [sn:157].
 792000: system.cpu.iew: [iew_impl.h] Speculative load  792000: system.cpu.iew: PC (0x401929=>0x401931).(0=>1), [tid:0] [sn:160].
 792000: system.cpu.iew: [iew_impl.h] Speculative load  792000: system.cpu.iew: PC (0x401931=>0x401935).(0=>1), [tid:0] [sn:161].
 792000: system.cpu.iew: [iew_impl.h] Speculative load  792000: system.cpu.iew: PC (0x401935=>0x40193a).(0=>1), [tid:0] [sn:162].
 795000: system.cpu.commit: [commit_impl.hh] Committing  795000: system.cpu.commit: PC (0x401910=>0x401914).(0=>1), [tid:0] [sn:154].
 796000: system.cpu.commit: [commit_impl.hh] Committing  796000: system.cpu.commit: PC (0x401914=>0x401919).(0=>1), [tid:0] [sn:155].
 796000: system.cpu.commit: [commit_impl.hh] Committing  796000: system.cpu.commit: PC (0x401919=>0x40191e).(0=>1), [tid:0] [sn:156].
 796000: system.cpu.commit: [commit_impl.hh] Committing  796000: system.cpu.commit: PC (0x40191e=>0x401923).(0=>1), [tid:0] [sn:157].
 796000: system.cpu.commit: [commit_impl.hh] Committing  796000: system.cpu.commit: PC (0x401929=>0x401931).(0=>1), [tid:0] [sn:160].
 797000: system.cpu.commit: [commit_impl.hh] Committing  797000: system.cpu.commit: PC (0x401931=>0x401935).(0=>1), [tid:0] [sn:161].
 797000: system.cpu.commit: [commit_impl.hh] Committing  797000: system.cpu.commit: PC (0x401935=>0x40193a).(0=>1), [tid:0] [sn:162].
1117000: system.cpu.iew: [iew_impl.h] Speculative load 1117000: system.cpu.iew: PC (0x401524=>0x40152a).(1=>2), [tid:0] [sn:214].
1118000: system.cpu.iew: [iew_impl.h] Speculative load 1118000: system.cpu.iew: PC (0x401537=>0x40153c).(0=>1), [tid:0] [sn:221].
1212000: system.cpu.iew: [iew_impl.h] Speculative load 1212000: system.cpu.iew: PC (0x40153c=>0x401541).(0=>1), [tid:0] [sn:223].
1212000: system.cpu.iew: [iew_impl.h] Speculative load 1212000: system.cpu.iew: PC (0x401541=>0x401549).(0=>1), [tid:0] [sn:224].
1215000: system.cpu.iew: [iew_impl.h] Speculative load 1215000: system.cpu.iew: PC (0x401570=>0x401576).(1=>2), [tid:0] [sn:245].
1216000: system.cpu.iew: [iew_impl.h] Speculative load 1216000: system.cpu.iew: PC (0x401564=>0x401569).(1=>2), [tid:0] [sn:234].
1217000: system.cpu.iew.lsq.thread0: [lsq_unit_impl.hh] Misprediction. Squashing 1217000: system.cpu.iew.lsq.thread0: PC (0x401570=>0x401576).(1=>2), [tid:0] [sn:245].
1228000: system.cpu.commit: [commit_impl.hh] Committing 1228000: system.cpu.commit: PC (0x401524=>0x40152a).(1=>2), [tid:0] [sn:214].
1232000: system.cpu.commit: [commit_impl.hh] Committing 1232000: system.cpu.commit: PC (0x401537=>0x40153c).(0=>1), [tid:0] [sn:221].
1232000: system.cpu.commit: [commit_impl.hh] Committing 1232000: system.cpu.commit: PC (0x40153c=>0x401541).(0=>1), [tid:0] [sn:223].
1232000: system.cpu.commit: [commit_impl.hh] Committing 1232000: system.cpu.commit: PC (0x401541=>0x401549).(0=>1), [tid:0] [sn:224].
1233000: system.cpu.commit: [commit_impl.hh] Committing 1233000: system.cpu.commit: PC (0x401564=>0x401569).(1=>2), [tid:0] [sn:234].
1235000: system.cpu.commit: [commit_impl.hh] Squashing 1235000: system.cpu.commit: PC (0x401570=>0x401576).(1=>2), [tid:0] [sn:245].
1332000: system.cpu.iew: [iew_impl.h] Speculative load 1332000: system.cpu.iew: PC (0x41cb20=>0x41cb23).(0=>1), [tid:0] [sn:255].
1334000: system.cpu.iew: [iew_impl.h] Speculative load 1334000: system.cpu.iew: PC (0x41cb35=>0x41cb3c).(1=>2), [tid:0] [sn:265].
1429000: system.cpu.iew: [iew_impl.h] Speculative load 1429000: system.cpu.iew: PC (0x41cb3e=>0x41cb45).(1=>2), [tid:0] [sn:268].
1429000: system.cpu.iew: [iew_impl.h] Speculative load 1429000: system.cpu.iew: PC (0x41cb45=>0x41cb4c).(1=>2), [tid:0] [sn:270].
1429000: system.cpu.iew: [iew_impl.h] Speculative load 1429000: system.cpu.iew: PC (0x41cb50=>0x41cb57).(1=>2), [tid:0] [sn:275].
1430000: system.cpu.iew: [iew_impl.h] Speculative load 1430000: system.cpu.iew: PC (0x41cb59=>0x41cb60).(1=>2), [tid:0] [sn:278].
1430000: system.cpu.iew: [iew_impl.h] Speculative load 1430000: system.cpu.iew: PC (0x41cb60=>0x41cb67).(1=>2), [tid:0] [sn:280].
1431000: system.cpu.iew: [iew_impl.h] Speculative load 1431000: system.cpu.iew: PC (0x41cb69=>0x41cb70).(1=>2), [tid:0] [sn:284].
1431000: system.cpu.iew: [iew_impl.h] Speculative load 1431000: system.cpu.iew: PC (0x41cb72=>0x41cb79).(1=>2), [tid:0] [sn:288].
1433000: system.cpu.commit: [commit_impl.hh] Committing 1433000: system.cpu.commit: PC (0x41cb20=>0x41cb23).(0=>1), [tid:0] [sn:255].
1457000: system.cpu.iew: [iew_impl.h] Speculative load 1457000: system.cpu.iew: PC (0x41cb72=>0x41cb79).(1=>2), [tid:0] [sn:288].
1459000: system.cpu.commit: [commit_impl.hh] Committing 1459000: system.cpu.commit: PC (0x41cb35=>0x41cb3c).(1=>2), [tid:0] [sn:265].
1459000: system.cpu.commit: [commit_impl.hh] Committing 1459000: system.cpu.commit: PC (0x41cb3e=>0x41cb45).(1=>2), [tid:0] [sn:268].
1468000: system.cpu.commit: [commit_impl.hh] Committing 1468000: system.cpu.commit: PC (0x41cb45=>0x41cb4c).(1=>2), [tid:0] [sn:270].
1555000: system.cpu.iew: [iew_impl.h] Speculative load 1555000: system.cpu.iew: PC (0x41cb7a=>0x41cb81).(1=>2), [tid:0] [sn:292].
1555000: system.cpu.iew: [iew_impl.h] Speculative load 1555000: system.cpu.iew: PC (0x41cb82=>0x41cb89).(1=>2), [tid:0] [sn:296].
1556000: system.cpu.iew: [iew_impl.h] Speculative load 1556000: system.cpu.iew: PC (0x41cb9a=>0x41cba1).(0=>1), [tid:0] [sn:305].
1556000: system.cpu.iew: [iew_impl.h] Speculative load 1556000: system.cpu.iew: PC (0x41cba8=>0x41cbac).(0=>1), [tid:0] [sn:308].
1558000: system.cpu.iew: [iew_impl.h] Speculative load 1558000: system.cpu.iew: PC (0x41cbb4=>0x41cbb7).(0=>1), [tid:0] [sn:312].
1558000: system.cpu.commit: [commit_impl.hh] Committing 1558000: system.cpu.commit: PC (0x41cb50=>0x41cb57).(1=>2), [tid:0] [sn:275].
1558000: system.cpu.commit: [commit_impl.hh] Committing 1558000: system.cpu.commit: PC (0x41cb59=>0x41cb60).(1=>2), [tid:0] [sn:278].
1558000: system.cpu.commit: [commit_impl.hh] Committing 1558000: system.cpu.commit: PC (0x41cb60=>0x41cb67).(1=>2), [tid:0] [sn:280].
1561000: system.cpu.iew: [iew_impl.h] Speculative load 1561000: system.cpu.iew: PC (0x41cba8=>0x41cbac).(0=>1), [tid:0] [sn:308].
1561000: system.cpu.iew: [iew_impl.h] Speculative load 1561000: system.cpu.iew: PC (0x41cbb4=>0x41cbb7).(0=>1), [tid:0] [sn:312].
1563000: system.cpu.commit: [commit_impl.hh] Committing 1563000: system.cpu.commit: PC (0x41cb69=>0x41cb70).(1=>2), [tid:0] [sn:284].
1563000: system.cpu.commit: [commit_impl.hh] Committing 1563000: system.cpu.commit: PC (0x41cb72=>0x41cb79).(1=>2), [tid:0] [sn:288].
1564000: system.cpu.commit: [commit_impl.hh] Committing 1564000: system.cpu.commit: PC (0x41cb7a=>0x41cb81).(1=>2), [tid:0] [sn:292].
1577000: system.cpu.iew: [iew_impl.h] Speculative load 1577000: system.cpu.iew: PC (0x41cba8=>0x41cbac).(0=>1), [tid:0] [sn:329].
1578000: system.cpu.iew: [iew_impl.h] Speculative load 1578000: system.cpu.iew: PC (0x41cb9a=>0x41cba1).(0=>1), [tid:0] [sn:326].
1579000: system.cpu.iew: [iew_impl.h] Speculative load 1579000: system.cpu.iew: PC (0x41cbb4=>0x41cbb7).(0=>1), [tid:0] [sn:333].
1596000: system.cpu.iew: [iew_impl.h] Speculative load 1596000: system.cpu.iew: PC (0x41cbb4=>0x41cbb7).(0=>1), [tid:0] [sn:333].
1611000: system.cpu.iew: [iew_impl.h] Speculative load 1611000: system.cpu.iew: PC (0x41cba8=>0x41cbac).(0=>1), [tid:0] [sn:350].
1612000: system.cpu.iew: [iew_impl.h] Speculative load 1612000: system.cpu.iew: PC (0x41cb9a=>0x41cba1).(0=>1), [tid:0] [sn:347].
1613000: system.cpu.iew: [iew_impl.h] Speculative load 1613000: system.cpu.iew: PC (0x41cbb4=>0x41cbb7).(0=>1), [tid:0] [sn:354].
1655000: system.cpu.iew: [iew_impl.h] Speculative load 1655000: system.cpu.iew: PC (0x41cb9a=>0x41cba1).(0=>1), [tid:0] [sn:347].
1655000: system.cpu.iew: [iew_impl.h] Speculative load 1655000: system.cpu.iew: PC (0x41cba8=>0x41cbac).(0=>1), [tid:0] [sn:350].
1655000: system.cpu.iew: [iew_impl.h] Speculative load 1655000: system.cpu.iew: PC (0x41cbb4=>0x41cbb7).(0=>1), [tid:0] [sn:354].
1657000: system.cpu.commit: [commit_impl.hh] Committing 1657000: system.cpu.commit: PC (0x41cb82=>0x41cb89).(1=>2), [tid:0] [sn:296].
1665000: system.cpu.iew: [iew_impl.h] Speculative load 1665000: system.cpu.iew: PC (0x41cba8=>0x41cbac).(0=>1), [tid:0] [sn:350].
1665000: system.cpu.iew: [iew_impl.h] Speculative load 1665000: system.cpu.iew: PC (0x41cbb4=>0x41cbb7).(0=>1), [tid:0] [sn:354].
1668000: system.cpu.iew.lsq.thread0: [lsq_unit_impl.hh] Misprediction. Squashing 1668000: system.cpu.iew.lsq.thread0: PC (0x41cbb4=>0x41cbb7).(0=>1), [tid:0] [sn:354].
1668000: system.cpu.iew.lsq.thread0: [lsq_unit_impl.hh] Misprediction. Squashing 1668000: system.cpu.iew.lsq.thread0: PC (0x41cba8=>0x41cbac).(0=>1), [tid:0] [sn:350].
1668000: system.cpu.iew.lsq.thread0: [lsq_unit_impl.hh] Misprediction. Squashing 1668000: system.cpu.iew.lsq.thread0: PC (0x41cb9a=>0x41cba1).(0=>1), [tid:0] [sn:347].
1668000: system.cpu.iew.lsq.thread0: [lsq_unit_impl.hh] Misprediction. Squashing 1668000: system.cpu.iew.lsq.thread0: PC (0x41cbb4=>0x41cbb7).(0=>1), [tid:0] [sn:333].
1668000: system.cpu.iew.lsq.thread0: [lsq_unit_impl.hh] Misprediction. Squashing 1668000: system.cpu.iew.lsq.thread0: PC (0x41cba8=>0x41cbac).(0=>1), [tid:0] [sn:329].
1668000: system.cpu.iew.lsq.thread0: [lsq_unit_impl.hh] Misprediction. Squashing 1668000: system.cpu.iew.lsq.thread0: PC (0x41cb9a=>0x41cba1).(0=>1), [tid:0] [sn:326].
1668000: system.cpu.iew.lsq.thread0: [lsq_unit_impl.hh] Misprediction. Squashing 1668000: system.cpu.iew.lsq.thread0: PC (0x41cbb4=>0x41cbb7).(0=>1), [tid:0] [sn:312].
1668000: system.cpu.iew.lsq.thread0: [lsq_unit_impl.hh] Misprediction. Squashing 1668000: system.cpu.iew.lsq.thread0: PC (0x41cba8=>0x41cbac).(0=>1), [tid:0] [sn:308].
1676000: system.cpu.commit: [commit_impl.hh] Committing 1676000: system.cpu.commit: PC (0x41cb9a=>0x41cba1).(0=>1), [tid:0] [sn:305].
1676000: system.cpu.commit: [commit_impl.hh] Squashing 1676000: system.cpu.commit: PC (0x41cba8=>0x41cbac).(0=>1), [tid:0] [sn:308].
1676000: system.cpu.commit: [commit_impl.hh] Squashing 1676000: system.cpu.commit: PC (0x41cbb4=>0x41cbb7).(0=>1), [tid:0] [sn:312].
1676000: system.cpu.commit: [commit_impl.hh] Squashing 1676000: system.cpu.commit: PC (0x41cb9a=>0x41cba1).(0=>1), [tid:0] [sn:326].
1676000: system.cpu.commit: [commit_impl.hh] Squashing 1676000: system.cpu.commit: PC (0x41cba8=>0x41cbac).(0=>1), [tid:0] [sn:329].
1676000: system.cpu.commit: [commit_impl.hh] Squashing 1676000: system.cpu.commit: PC (0x41cbb4=>0x41cbb7).(0=>1), [tid:0] [sn:333].
1676000: system.cpu.commit: [commit_impl.hh] Squashing 1676000: system.cpu.commit: PC (0x41cb9a=>0x41cba1).(0=>1), [tid:0] [sn:347].
1676000: system.cpu.commit: [commit_impl.hh] Squashing 1676000: system.cpu.commit: PC (0x41cba8=>0x41cbac).(0=>1), [tid:0] [sn:350].
1676000: system.cpu.commit: [commit_impl.hh] Squashing 1676000: system.cpu.commit: PC (0x41cbb4=>0x41cbb7).(0=>1), [tid:0] [sn:354].
1683000: system.cpu.iew: [iew_impl.h] Speculative load 1683000: system.cpu.iew: PC (0x41cba8=>0x41cbac).(0=>1), [tid:0] [sn:379].
1685000: system.cpu.iew: [iew_impl.h] Speculative load 1685000: system.cpu.iew: PC (0x41cbb4=>0x41cbb7).(0=>1), [tid:0] [sn:383].
1687000: system.cpu.commit: [commit_impl.hh] Committing 1687000: system.cpu.commit: PC (0x41cba8=>0x41cbac).(0=>1), [tid:0] [sn:379].
1689000: system.cpu.commit: [commit_impl.hh] Committing 1689000: system.cpu.commit: PC (0x41cbb4=>0x41cbb7).(0=>1), [tid:0] [sn:383].
1702000: system.cpu.iew: [iew_impl.h] Speculative load 1702000: system.cpu.iew: PC (0x41cb9a=>0x41cba1).(0=>1), [tid:0] [sn:415].
1702000: system.cpu.iew: [iew_impl.h] Speculative load 1702000: system.cpu.iew: PC (0x41cba8=>0x41cbac).(0=>1), [tid:0] [sn:418].
1704000: system.cpu.iew: [iew_impl.h] Speculative load 1704000: system.cpu.iew: PC (0x41cbb4=>0x41cbb7).(0=>1), [tid:0] [sn:422].
1707000: system.cpu.iew.lsq.thread0: [lsq_unit_impl.hh] Misprediction. Squashing 1707000: system.cpu.iew.lsq.thread0: PC (0x41cbb4=>0x41cbb7).(0=>1), [tid:0] [sn:422].
1707000: system.cpu.iew.lsq.thread0: [lsq_unit_impl.hh] Misprediction. Squashing 1707000: system.cpu.iew.lsq.thread0: PC (0x41cba8=>0x41cbac).(0=>1), [tid:0] [sn:418].
1710000: system.cpu.commit: [commit_impl.hh] Committing 1710000: system.cpu.commit: PC (0x41cb9a=>0x41cba1).(0=>1), [tid:0] [sn:415].
1710000: system.cpu.commit: [commit_impl.hh] Squashing 1710000: system.cpu.commit: PC (0x41cba8=>0x41cbac).(0=>1), [tid:0] [sn:418].
1710000: system.cpu.commit: [commit_impl.hh] Squashing 1710000: system.cpu.commit: PC (0x41cbb4=>0x41cbb7).(0=>1), [tid:0] [sn:422].
1808000: system.cpu.iew: [iew_impl.h] Speculative load 1808000: system.cpu.iew: PC (0x41cc80=>0x41cc84).(0=>1), [tid:0] [sn:447].
1808000: system.cpu.iew: [iew_impl.h] Speculative load 1808000: system.cpu.iew: PC (0x41cc90=>0x41cc93).(0=>1), [tid:0] [sn:452].
1809000: system.cpu.iew: [iew_impl.h] Speculative load 1809000: system.cpu.iew: PC (0x41cca0=>0x41cca3).(0=>1), [tid:0] [sn:460].
1810000: system.cpu.iew: [iew_impl.h] Speculative load 1810000: system.cpu.iew: PC (0x41ccb0=>0x41ccb3).(0=>1), [tid:0] [sn:468].
1811000: system.cpu.iew.lsq.thread0: [lsq_unit_impl.hh] Misprediction. Squashing 1811000: system.cpu.iew.lsq.thread0: PC (0x41ccb0=>0x41ccb3).(0=>1), [tid:0] [sn:468].
1811000: system.cpu.iew.lsq.thread0: [lsq_unit_impl.hh] Misprediction. Squashing 1811000: system.cpu.iew.lsq.thread0: PC (0x41cca0=>0x41cca3).(0=>1), [tid:0] [sn:460].
1811000: system.cpu.iew.lsq.thread0: [lsq_unit_impl.hh] Misprediction. Squashing 1811000: system.cpu.iew.lsq.thread0: PC (0x41cc90=>0x41cc93).(0=>1), [tid:0] [sn:452].
1814000: system.cpu.commit: [commit_impl.hh] Committing 1814000: system.cpu.commit: PC (0x41cc80=>0x41cc84).(0=>1), [tid:0] [sn:447].
1814000: system.cpu.commit: [commit_impl.hh] Squashing 1814000: system.cpu.commit: PC (0x41cc90=>0x41cc93).(0=>1), [tid:0] [sn:452].
1814000: system.cpu.commit: [commit_impl.hh] Squashing 1814000: system.cpu.commit: PC (0x41cca0=>0x41cca3).(0=>1), [tid:0] [sn:460].
1814000: system.cpu.commit: [commit_impl.hh] Squashing 1814000: system.cpu.commit: PC (0x41ccb0=>0x41ccb3).(0=>1), [tid:0] [sn:468].
1823000: system.cpu.iew: [iew_impl.h] Speculative load 1823000: system.cpu.iew: PC (0x41cbb4=>0x41cbb7).(0=>1), [tid:0] [sn:478].
1827000: system.cpu.commit: [commit_impl.hh] Committing 1827000: system.cpu.commit: PC (0x41cbb4=>0x41cbb7).(0=>1), [tid:0] [sn:478].
1828000: system.cpu.iew: [iew_impl.h] Speculative load 1828000: system.cpu.iew: PC (0x41cc26=>0x41cc27).(0=>1), [tid:0] [sn:522].
1829000: system.cpu.iew.lsq.thread0: [lsq_unit_impl.hh] Misprediction. Squashing 1829000: system.cpu.iew.lsq.thread0: PC (0x41cc2c=>0x41cc2e).(0=>1), [tid:0] [sn:534].
1829000: system.cpu.iew.lsq.thread0: [lsq_unit_impl.hh] Misprediction. Squashing 1829000: system.cpu.iew.lsq.thread0: PC (0x41cc2a=>0x41cc2c).(0=>1), [tid:0] [sn:531].
1829000: system.cpu.iew.lsq.thread0: [lsq_unit_impl.hh] Misprediction. Squashing 1829000: system.cpu.iew.lsq.thread0: PC (0x41cc28=>0x41cc2a).(0=>1), [tid:0] [sn:528].
1829000: system.cpu.iew.lsq.thread0: [lsq_unit_impl.hh] Misprediction. Squashing 1829000: system.cpu.iew.lsq.thread0: PC (0x41cc27=>0x41cc28).(0=>1), [tid:0] [sn:525].
1829000: system.cpu.iew.lsq.thread0: [lsq_unit_impl.hh] Misprediction. Squashing 1829000: system.cpu.iew.lsq.thread0: PC (0x41cc26=>0x41cc27).(0=>1), [tid:0] [sn:522].
1835000: system.cpu.commit: [commit_impl.hh] Squashing 1835000: system.cpu.commit: PC (0x41cc26=>0x41cc27).(0=>1), [tid:0] [sn:522].
1835000: system.cpu.commit: [commit_impl.hh] Squashing 1835000: system.cpu.commit: PC (0x41cc27=>0x41cc28).(0=>1), [tid:0] [sn:525].
1835000: system.cpu.commit: [commit_impl.hh] Squashing 1835000: system.cpu.commit: PC (0x41cc28=>0x41cc2a).(0=>1), [tid:0] [sn:528].
1835000: system.cpu.commit: [commit_impl.hh] Squashing 1835000: system.cpu.commit: PC (0x41cc2a=>0x41cc2c).(0=>1), [tid:0] [sn:531].
1835000: system.cpu.commit: [commit_impl.hh] Squashing 1835000: system.cpu.commit: PC (0x41cc2c=>0x41cc2e).(0=>1), [tid:0] [sn:534].
1844000: system.cpu.iew: [iew_impl.h] Speculative load 1844000: system.cpu.iew: PC (0x41cb9a=>0x41cba1).(0=>1), [tid:0] [sn:561].
1844000: system.cpu.iew: [iew_impl.h] Speculative load 1844000: system.cpu.iew: PC (0x41cba8=>0x41cbac).(0=>1), [tid:0] [sn:564].
1846000: system.cpu.iew: [iew_impl.h] Speculative load 1846000: system.cpu.iew: PC (0x41cbb4=>0x41cbb7).(0=>1), [tid:0] [sn:568].
1849000: system.cpu.iew.lsq.thread0: [lsq_unit_impl.hh] Misprediction. Squashing 1849000: system.cpu.iew.lsq.thread0: PC (0x41cbb4=>0x41cbb7).(0=>1), [tid:0] [sn:568].
1849000: system.cpu.iew.lsq.thread0: [lsq_unit_impl.hh] Misprediction. Squashing 1849000: system.cpu.iew.lsq.thread0: PC (0x41cba8=>0x41cbac).(0=>1), [tid:0] [sn:564].
1854000: system.cpu.commit: [commit_impl.hh] Committing 1854000: system.cpu.commit: PC (0x41cb9a=>0x41cba1).(0=>1), [tid:0] [sn:561].
1854000: system.cpu.commit: [commit_impl.hh] Squashing 1854000: system.cpu.commit: PC (0x41cba8=>0x41cbac).(0=>1), [tid:0] [sn:564].
1854000: system.cpu.commit: [commit_impl.hh] Squashing 1854000: system.cpu.commit: PC (0x41cbb4=>0x41cbb7).(0=>1), [tid:0] [sn:568].
1907000: system.cpu.iew: [iew_impl.h] Speculative load 1907000: system.cpu.iew: PC (0x41ccf0=>0x41ccf4).(0=>1), [tid:0] [sn:644].
1911000: system.cpu.commit: [commit_impl.hh] Committing 1911000: system.cpu.commit: PC (0x41ccf0=>0x41ccf4).(0=>1), [tid:0] [sn:644].
1920000: system.cpu.iew: [iew_impl.h] Speculative load 1920000: system.cpu.iew: PC (0x41cbb4=>0x41cbb7).(0=>1), [tid:0] [sn:651].
1924000: system.cpu.commit: [commit_impl.hh] Committing 1924000: system.cpu.commit: PC (0x41cbb4=>0x41cbb7).(0=>1), [tid:0] [sn:651].
1939000: system.cpu.iew: [iew_impl.h] Speculative load 1939000: system.cpu.iew: PC (0x41cb9a=>0x41cba1).(0=>1), [tid:0] [sn:723].
1939000: system.cpu.iew: [iew_impl.h] Speculative load 1939000: system.cpu.iew: PC (0x41cba8=>0x41cbac).(0=>1), [tid:0] [sn:726].
1941000: system.cpu.iew: [iew_impl.h] Speculative load 1941000: system.cpu.iew: PC (0x41cbb4=>0x41cbb7).(0=>1), [tid:0] [sn:730].
1944000: system.cpu.iew.lsq.thread0: [lsq_unit_impl.hh] Misprediction. Squashing 1944000: system.cpu.iew.lsq.thread0: PC (0x41cbb4=>0x41cbb7).(0=>1), [tid:0] [sn:730].
1944000: system.cpu.iew.lsq.thread0: [lsq_unit_impl.hh] Misprediction. Squashing 1944000: system.cpu.iew.lsq.thread0: PC (0x41cba8=>0x41cbac).(0=>1), [tid:0] [sn:726].
1949000: system.cpu.commit: [commit_impl.hh] Committing 1949000: system.cpu.commit: PC (0x41cb9a=>0x41cba1).(0=>1), [tid:0] [sn:723].
1949000: system.cpu.commit: [commit_impl.hh] Squashing 1949000: system.cpu.commit: PC (0x41cba8=>0x41cbac).(0=>1), [tid:0] [sn:726].
1949000: system.cpu.commit: [commit_impl.hh] Squashing 1949000: system.cpu.commit: PC (0x41cbb4=>0x41cbb7).(0=>1), [tid:0] [sn:730].
2049000: system.cpu.iew: [iew_impl.h] Speculative load 2049000: system.cpu.iew: PC (0x41cc70=>0x41cc74).(0=>1), [tid:0] [sn:803].
2051000: system.cpu.iew: [iew_impl.h] Speculative load 2051000: system.cpu.iew: PC (0x41cc80=>0x41cc84).(0=>1), [tid:0] [sn:808].
2051000: system.cpu.iew: [iew_impl.h] Speculative load 2051000: system.cpu.iew: PC (0x41cc90=>0x41cc93).(0=>1), [tid:0] [sn:813].
2052000: system.cpu.iew.lsq.thread0: [lsq_unit_impl.hh] Misprediction. Squashing 2052000: system.cpu.iew.lsq.thread0: PC (0x41cca0=>0x41cca3).(0=>1), [tid:0] [sn:821].
2052000: system.cpu.iew.lsq.thread0: [lsq_unit_impl.hh] Misprediction. Squashing 2052000: system.cpu.iew.lsq.thread0: PC (0x41cc90=>0x41cc93).(0=>1), [tid:0] [sn:813].
2052000: system.cpu.iew.lsq.thread0: [lsq_unit_impl.hh] Misprediction. Squashing 2052000: system.cpu.iew.lsq.thread0: PC (0x41cc80=>0x41cc84).(0=>1), [tid:0] [sn:808].
2054000: system.cpu.commit: [commit_impl.hh] Committing 2054000: system.cpu.commit: PC (0x41cc70=>0x41cc74).(0=>1), [tid:0] [sn:803].
2054000: system.cpu.commit: [commit_impl.hh] Squashing 2054000: system.cpu.commit: PC (0x41cc80=>0x41cc84).(0=>1), [tid:0] [sn:808].
2054000: system.cpu.commit: [commit_impl.hh] Squashing 2054000: system.cpu.commit: PC (0x41cc90=>0x41cc93).(0=>1), [tid:0] [sn:813].
2054000: system.cpu.commit: [commit_impl.hh] Squashing 2054000: system.cpu.commit: PC (0x41cca0=>0x41cca3).(0=>1), [tid:0] [sn:821].
2063000: system.cpu.iew: [iew_impl.h] Speculative load 2063000: system.cpu.iew: PC (0x41cbb4=>0x41cbb7).(0=>1), [tid:0] [sn:847].
2067000: system.cpu.commit: [commit_impl.hh] Committing 2067000: system.cpu.commit: PC (0x41cbb4=>0x41cbb7).(0=>1), [tid:0] [sn:847].
2069000: system.cpu.iew.lsq.thread0: [lsq_unit_impl.hh] Misprediction. Squashing 2069000: system.cpu.iew.lsq.thread0: PC (0x41cc27=>0x41cc28).(0=>1), [tid:0] [sn:894].
2069000: system.cpu.iew.lsq.thread0: [lsq_unit_impl.hh] Misprediction. Squashing 2069000: system.cpu.iew.lsq.thread0: PC (0x41cc26=>0x41cc27).(0=>1), [tid:0] [sn:891].
2074000: system.cpu.commit: [commit_impl.hh] Squashing 2074000: system.cpu.commit: PC (0x41cc26=>0x41cc27).(0=>1), [tid:0] [sn:891].
2074000: system.cpu.commit: [commit_impl.hh] Squashing 2074000: system.cpu.commit: PC (0x41cc27=>0x41cc28).(0=>1), [tid:0] [sn:894].
2083000: system.cpu.iew: [iew_impl.h] Speculative load 2083000: system.cpu.iew: PC (0x41cb9a=>0x41cba1).(0=>1), [tid:0] [sn:927].
2083000: system.cpu.iew: [iew_impl.h] Speculative load 2083000: system.cpu.iew: PC (0x41cba8=>0x41cbac).(0=>1), [tid:0] [sn:930].
2085000: system.cpu.iew: [iew_impl.h] Speculative load 2085000: system.cpu.iew: PC (0x41cbb4=>0x41cbb7).(0=>1), [tid:0] [sn:934].
2088000: system.cpu.iew.lsq.thread0: [lsq_unit_impl.hh] Misprediction. Squashing 2088000: system.cpu.iew.lsq.thread0: PC (0x41cbb4=>0x41cbb7).(0=>1), [tid:0] [sn:934].
2088000: system.cpu.iew.lsq.thread0: [lsq_unit_impl.hh] Misprediction. Squashing 2088000: system.cpu.iew.lsq.thread0: PC (0x41cba8=>0x41cbac).(0=>1), [tid:0] [sn:930].
2093000: system.cpu.commit: [commit_impl.hh] Committing 2093000: system.cpu.commit: PC (0x41cb9a=>0x41cba1).(0=>1), [tid:0] [sn:927].
2093000: system.cpu.commit: [commit_impl.hh] Squashing 2093000: system.cpu.commit: PC (0x41cba8=>0x41cbac).(0=>1), [tid:0] [sn:930].
2093000: system.cpu.commit: [commit_impl.hh] Squashing 2093000: system.cpu.commit: PC (0x41cbb4=>0x41cbb7).(0=>1), [tid:0] [sn:934].
2100000: system.cpu.iew: [iew_impl.h] Speculative load 2100000: system.cpu.iew: PC (0x41ccd0=>0x41ccd4).(0=>1), [tid:0] [sn:1010].
2100000: system.cpu.iew: [iew_impl.h] Speculative load 2100000: system.cpu.iew: PC (0x41cce0=>0x41cce3).(0=>1), [tid:0] [sn:1015].
2102000: system.cpu.iew: [iew_impl.h] Speculative load 2102000: system.cpu.iew: PC (0x41ccf0=>0x41ccf4).(0=>1), [tid:0] [sn:1023].
2103000: system.cpu.iew.lsq.thread0: [lsq_unit_impl.hh] Misprediction. Squashing 2103000: system.cpu.iew.lsq.thread0: PC (0x41ccf0=>0x41ccf4).(0=>1), [tid:0] [sn:1023].
2103000: system.cpu.iew.lsq.thread0: [lsq_unit_impl.hh] Misprediction. Squashing 2103000: system.cpu.iew.lsq.thread0: PC (0x41cce0=>0x41cce3).(0=>1), [tid:0] [sn:1015].
2105000: system.cpu.commit: [commit_impl.hh] Committing 2105000: system.cpu.commit: PC (0x41ccd0=>0x41ccd4).(0=>1), [tid:0] [sn:1010].
2105000: system.cpu.commit: [commit_impl.hh] Squashing 2105000: system.cpu.commit: PC (0x41cce0=>0x41cce3).(0=>1), [tid:0] [sn:1015].
2105000: system.cpu.commit: [commit_impl.hh] Squashing 2105000: system.cpu.commit: PC (0x41ccf0=>0x41ccf4).(0=>1), [tid:0] [sn:1023].
2114000: system.cpu.iew: [iew_impl.h] Speculative load 2114000: system.cpu.iew: PC (0x41cbb4=>0x41cbb7).(0=>1), [tid:0] [sn:1069].
2118000: system.cpu.commit: [commit_impl.hh] Committing 2118000: system.cpu.commit: PC (0x41cbb4=>0x41cbb7).(0=>1), [tid:0] [sn:1069].
2120000: system.cpu.iew.lsq.thread0: [lsq_unit_impl.hh] Misprediction. Squashing 2120000: system.cpu.iew.lsq.thread0: PC (0x41cc27=>0x41cc28).(0=>1), [tid:0] [sn:1116].
2120000: system.cpu.iew.lsq.thread0: [lsq_unit_impl.hh] Misprediction. Squashing 2120000: system.cpu.iew.lsq.thread0: PC (0x41cc26=>0x41cc27).(0=>1), [tid:0] [sn:1113].
2125000: system.cpu.commit: [commit_impl.hh] Squashing 2125000: system.cpu.commit: PC (0x41cc26=>0x41cc27).(0=>1), [tid:0] [sn:1113].
2125000: system.cpu.commit: [commit_impl.hh] Squashing 2125000: system.cpu.commit: PC (0x41cc27=>0x41cc28).(0=>1), [tid:0] [sn:1116].
2134000: system.cpu.iew: [iew_impl.h] Speculative load 2134000: system.cpu.iew: PC (0x41cb9a=>0x41cba1).(0=>1), [tid:0] [sn:1149].
2134000: system.cpu.iew: [iew_impl.h] Speculative load 2134000: system.cpu.iew: PC (0x41cba8=>0x41cbac).(0=>1), [tid:0] [sn:1152].
2136000: system.cpu.iew: [iew_impl.h] Speculative load 2136000: system.cpu.iew: PC (0x41cbb4=>0x41cbb7).(0=>1), [tid:0] [sn:1156].
2139000: system.cpu.iew.lsq.thread0: [lsq_unit_impl.hh] Misprediction. Squashing 2139000: system.cpu.iew.lsq.thread0: PC (0x41cbb4=>0x41cbb7).(0=>1), [tid:0] [sn:1156].
2139000: system.cpu.iew.lsq.thread0: [lsq_unit_impl.hh] Misprediction. Squashing 2139000: system.cpu.iew.lsq.thread0: PC (0x41cba8=>0x41cbac).(0=>1), [tid:0] [sn:1152].
2144000: system.cpu.commit: [commit_impl.hh] Committing 2144000: system.cpu.commit: PC (0x41cb9a=>0x41cba1).(0=>1), [tid:0] [sn:1149].
2144000: system.cpu.commit: [commit_impl.hh] Squashing 2144000: system.cpu.commit: PC (0x41cba8=>0x41cbac).(0=>1), [tid:0] [sn:1152].
2144000: system.cpu.commit: [commit_impl.hh] Squashing 2144000: system.cpu.commit: PC (0x41cbb4=>0x41cbb7).(0=>1), [tid:0] [sn:1156].
2153000: system.cpu.iew: [iew_impl.h] Speculative load 2153000: system.cpu.iew: PC (0x41cbb4=>0x41cbb7).(0=>1), [tid:0] [sn:1234].
2157000: system.cpu.iew: [iew_impl.h] Speculative load 2157000: system.cpu.iew: PC (0x41cc26=>0x41cc27).(0=>1), [tid:0] [sn:1278].
2157000: system.cpu.commit: [commit_impl.hh] Committing 2157000: system.cpu.commit: PC (0x41cbb4=>0x41cbb7).(0=>1), [tid:0] [sn:1234].
2158000: system.cpu.iew: [iew_impl.h] Speculative load 2158000: system.cpu.iew: PC (0x41cc27=>0x41cc28).(0=>1), [tid:0] [sn:1281].
2159000: system.cpu.iew.lsq.thread0: [lsq_unit_impl.hh] Misprediction. Squashing 2159000: system.cpu.iew.lsq.thread0: PC (0x41cc2e=>0x41cc30).(0=>1), [tid:0] [sn:1293].
2159000: system.cpu.iew.lsq.thread0: [lsq_unit_impl.hh] Misprediction. Squashing 2159000: system.cpu.iew.lsq.thread0: PC (0x41cc2c=>0x41cc2e).(0=>1), [tid:0] [sn:1290].
2159000: system.cpu.iew.lsq.thread0: [lsq_unit_impl.hh] Misprediction. Squashing 2159000: system.cpu.iew.lsq.thread0: PC (0x41cc2a=>0x41cc2c).(0=>1), [tid:0] [sn:1287].
2159000: system.cpu.iew.lsq.thread0: [lsq_unit_impl.hh] Misprediction. Squashing 2159000: system.cpu.iew.lsq.thread0: PC (0x41cc28=>0x41cc2a).(0=>1), [tid:0] [sn:1284].
2159000: system.cpu.iew.lsq.thread0: [lsq_unit_impl.hh] Misprediction. Squashing 2159000: system.cpu.iew.lsq.thread0: PC (0x41cc27=>0x41cc28).(0=>1), [tid:0] [sn:1281].
2159000: system.cpu.iew.lsq.thread0: [lsq_unit_impl.hh] Misprediction. Squashing 2159000: system.cpu.iew.lsq.thread0: PC (0x41cc26=>0x41cc27).(0=>1), [tid:0] [sn:1278].
2166000: system.cpu.commit: [commit_impl.hh] Squashing 2166000: system.cpu.commit: PC (0x41cc26=>0x41cc27).(0=>1), [tid:0] [sn:1278].
2166000: system.cpu.commit: [commit_impl.hh] Squashing 2166000: system.cpu.commit: PC (0x41cc27=>0x41cc28).(0=>1), [tid:0] [sn:1281].
2166000: system.cpu.commit: [commit_impl.hh] Squashing 2166000: system.cpu.commit: PC (0x41cc28=>0x41cc2a).(0=>1), [tid:0] [sn:1284].
2166000: system.cpu.commit: [commit_impl.hh] Squashing 2166000: system.cpu.commit: PC (0x41cc2a=>0x41cc2c).(0=>1), [tid:0] [sn:1287].
2166000: system.cpu.commit: [commit_impl.hh] Squashing 2166000: system.cpu.commit: PC (0x41cc2c=>0x41cc2e).(0=>1), [tid:0] [sn:1290].
2166000: system.cpu.commit: [commit_impl.hh] Squashing 2166000: system.cpu.commit: PC (0x41cc2e=>0x41cc30).(0=>1), [tid:0] [sn:1293].
2175000: system.cpu.iew: [iew_impl.h] Speculative load 2175000: system.cpu.iew: PC (0x41cb9a=>0x41cba1).(0=>1), [tid:0] [sn:1325].
2175000: system.cpu.iew: [iew_impl.h] Speculative load 2175000: system.cpu.iew: PC (0x41cba8=>0x41cbac).(0=>1), [tid:0] [sn:1328].
2177000: system.cpu.iew: [iew_impl.h] Speculative load 2177000: system.cpu.iew: PC (0x41cbb4=>0x41cbb7).(0=>1), [tid:0] [sn:1332].
2180000: system.cpu.iew.lsq.thread0: [lsq_unit_impl.hh] Misprediction. Squashing 2180000: system.cpu.iew.lsq.thread0: PC (0x41cbb4=>0x41cbb7).(0=>1), [tid:0] [sn:1332].
2180000: system.cpu.iew.lsq.thread0: [lsq_unit_impl.hh] Misprediction. Squashing 2180000: system.cpu.iew.lsq.thread0: PC (0x41cba8=>0x41cbac).(0=>1), [tid:0] [sn:1328].
2185000: system.cpu.commit: [commit_impl.hh] Committing 2185000: system.cpu.commit: PC (0x41cb9a=>0x41cba1).(0=>1), [tid:0] [sn:1325].
2185000: system.cpu.commit: [commit_impl.hh] Squashing 2185000: system.cpu.commit: PC (0x41cba8=>0x41cbac).(0=>1), [tid:0] [sn:1328].
2185000: system.cpu.commit: [commit_impl.hh] Squashing 2185000: system.cpu.commit: PC (0x41cbb4=>0x41cbb7).(0=>1), [tid:0] [sn:1332].
2192000: system.cpu.iew: [iew_impl.h] Speculative load 2192000: system.cpu.iew: PC (0x41ccc0=>0x41ccc4).(0=>1), [tid:0] [sn:1408].
2192000: system.cpu.iew: [iew_impl.h] Speculative load 2192000: system.cpu.iew: PC (0x41ccd0=>0x41ccd4).(0=>1), [tid:0] [sn:1413].
2194000: system.cpu.iew: [iew_impl.h] Speculative load 2194000: system.cpu.iew: PC (0x41cce0=>0x41cce3).(0=>1), [tid:0] [sn:1418].
2195000: system.cpu.iew.lsq.thread0: [lsq_unit_impl.hh] Misprediction. Squashing 2195000: system.cpu.iew.lsq.thread0: PC (0x41ccf0=>0x41ccf4).(0=>1), [tid:0] [sn:1426].
2195000: system.cpu.iew.lsq.thread0: [lsq_unit_impl.hh] Misprediction. Squashing 2195000: system.cpu.iew.lsq.thread0: PC (0x41cce0=>0x41cce3).(0=>1), [tid:0] [sn:1418].
2195000: system.cpu.iew.lsq.thread0: [lsq_unit_impl.hh] Misprediction. Squashing 2195000: system.cpu.iew.lsq.thread0: PC (0x41ccd0=>0x41ccd4).(0=>1), [tid:0] [sn:1413].
2197000: system.cpu.commit: [commit_impl.hh] Committing 2197000: system.cpu.commit: PC (0x41ccc0=>0x41ccc4).(0=>1), [tid:0] [sn:1408].
2197000: system.cpu.commit: [commit_impl.hh] Squashing 2197000: system.cpu.commit: PC (0x41ccd0=>0x41ccd4).(0=>1), [tid:0] [sn:1413].
2197000: system.cpu.commit: [commit_impl.hh] Squashing 2197000: system.cpu.commit: PC (0x41cce0=>0x41cce3).(0=>1), [tid:0] [sn:1418].
2197000: system.cpu.commit: [commit_impl.hh] Squashing 2197000: system.cpu.commit: PC (0x41ccf0=>0x41ccf4).(0=>1), [tid:0] [sn:1426].
2206000: system.cpu.iew: [iew_impl.h] Speculative load 2206000: system.cpu.iew: PC (0x41cbb4=>0x41cbb7).(0=>1), [tid:0] [sn:1472].
2210000: system.cpu.commit: [commit_impl.hh] Committing 2210000: system.cpu.commit: PC (0x41cbb4=>0x41cbb7).(0=>1), [tid:0] [sn:1472].
2212000: system.cpu.iew.lsq.thread0: [lsq_unit_impl.hh] Misprediction. Squashing 2212000: system.cpu.iew.lsq.thread0: PC (0x41cc27=>0x41cc28).(0=>1), [tid:0] [sn:1519].
2212000: system.cpu.iew.lsq.thread0: [lsq_unit_impl.hh] Misprediction. Squashing 2212000: system.cpu.iew.lsq.thread0: PC (0x41cc26=>0x41cc27).(0=>1), [tid:0] [sn:1516].
2217000: system.cpu.commit: [commit_impl.hh] Squashing 2217000: system.cpu.commit: PC (0x41cc26=>0x41cc27).(0=>1), [tid:0] [sn:1516].
2217000: system.cpu.commit: [commit_impl.hh] Squashing 2217000: system.cpu.commit: PC (0x41cc27=>0x41cc28).(0=>1), [tid:0] [sn:1519].
2226000: system.cpu.iew: [iew_impl.h] Speculative load 2226000: system.cpu.iew: PC (0x41cb9a=>0x41cba1).(0=>1), [tid:0] [sn:1552].
2226000: system.cpu.iew: [iew_impl.h] Speculative load 2226000: system.cpu.iew: PC (0x41cba8=>0x41cbac).(0=>1), [tid:0] [sn:1555].
2228000: system.cpu.iew: [iew_impl.h] Speculative load 2228000: system.cpu.iew: PC (0x41cbb4=>0x41cbb7).(0=>1), [tid:0] [sn:1559].
2231000: system.cpu.iew.lsq.thread0: [lsq_unit_impl.hh] Misprediction. Squashing 2231000: system.cpu.iew.lsq.thread0: PC (0x41cbb4=>0x41cbb7).(0=>1), [tid:0] [sn:1559].
2231000: system.cpu.iew.lsq.thread0: [lsq_unit_impl.hh] Misprediction. Squashing 2231000: system.cpu.iew.lsq.thread0: PC (0x41cba8=>0x41cbac).(0=>1), [tid:0] [sn:1555].
2236000: system.cpu.commit: [commit_impl.hh] Committing 2236000: system.cpu.commit: PC (0x41cb9a=>0x41cba1).(0=>1), [tid:0] [sn:1552].
2236000: system.cpu.commit: [commit_impl.hh] Squashing 2236000: system.cpu.commit: PC (0x41cba8=>0x41cbac).(0=>1), [tid:0] [sn:1555].
2236000: system.cpu.commit: [commit_impl.hh] Squashing 2236000: system.cpu.commit: PC (0x41cbb4=>0x41cbb7).(0=>1), [tid:0] [sn:1559].
2245000: system.cpu.iew: [iew_impl.h] Speculative load 2245000: system.cpu.iew: PC (0x41cbb4=>0x41cbb7).(0=>1), [tid:0] [sn:1637].
2249000: system.cpu.iew: [iew_impl.h] Speculative load 2249000: system.cpu.iew: PC (0x41cc26=>0x41cc27).(0=>1), [tid:0] [sn:1681].
2250000: system.cpu.iew.lsq.thread0: [lsq_unit_impl.hh] Misprediction. Squashing 2250000: system.cpu.iew.lsq.thread0: PC (0x41cc2a=>0x41cc2c).(0=>1), [tid:0] [sn:1690].
2250000: system.cpu.iew.lsq.thread0: [lsq_unit_impl.hh] Misprediction. Squashing 2250000: system.cpu.iew.lsq.thread0: PC (0x41cc28=>0x41cc2a).(0=>1), [tid:0] [sn:1687].
2250000: system.cpu.iew.lsq.thread0: [lsq_unit_impl.hh] Misprediction. Squashing 2250000: system.cpu.iew.lsq.thread0: PC (0x41cc27=>0x41cc28).(0=>1), [tid:0] [sn:1684].
2250000: system.cpu.iew.lsq.thread0: [lsq_unit_impl.hh] Misprediction. Squashing 2250000: system.cpu.iew.lsq.thread0: PC (0x41cc26=>0x41cc27).(0=>1), [tid:0] [sn:1681].
2259000: system.cpu.iew: [iew_impl.h] Speculative load 2259000: system.cpu.iew: PC (0x41cc26=>0x41cc27).(0=>1), [tid:0] [sn:1713].
2260000: system.cpu.iew: [iew_impl.h] Speculative load 2260000: system.cpu.iew: PC (0x41cc27=>0x41cc28).(0=>1), [tid:0] [sn:1716].
2261000: system.cpu.iew: [iew_impl.h] Speculative load 2261000: system.cpu.iew: PC (0x41cc28=>0x41cc2a).(0=>1), [tid:0] [sn:1719].
2262000: system.cpu.iew: [iew_impl.h] Speculative load 2262000: system.cpu.iew: PC (0x41cc2a=>0x41cc2c).(0=>1), [tid:0] [sn:1722].
2263000: system.cpu.iew: [iew_impl.h] Speculative load 2263000: system.cpu.iew: PC (0x41cc2c=>0x41cc2e).(0=>1), [tid:0] [sn:1725].
2263000: system.cpu.iew: [iew_impl.h] Speculative load 2263000: system.cpu.iew: PC (0x401570=>0x401576).(1=>2), [tid:0] [sn:1735].
2264000: system.cpu.iew: [iew_impl.h] Speculative load 2264000: system.cpu.iew: PC (0x41cc2e=>0x41cc30).(0=>1), [tid:0] [sn:1728].
2265000: system.cpu.iew: [iew_impl.h] Speculative load 2265000: system.cpu.iew: PC (0x41cc30=>0x41cc32).(0=>1), [tid:0] [sn:1731].
2266000: system.cpu.iew.lsq.thread0: [lsq_unit_impl.hh] Misprediction. Squashing 2266000: system.cpu.iew.lsq.thread0: PC (0x401587=>0x40158d).(1=>2), [tid:0] [sn:1750].
2326000: system.cpu.commit: [commit_impl.hh] Committing 2326000: system.cpu.commit: PC (0x41cbb4=>0x41cbb7).(0=>1), [tid:0] [sn:1637].
2328000: system.cpu.iew.lsq.thread0: [lsq_unit_impl.hh] Misprediction. Squashing 2328000: system.cpu.iew.lsq.thread0: PC (0x401570=>0x401576).(1=>2), [tid:0] [sn:1735].
2328000: system.cpu.iew.lsq.thread0: [lsq_unit_impl.hh] Misprediction. Squashing 2328000: system.cpu.iew.lsq.thread0: PC (0x41cc30=>0x41cc32).(0=>1), [tid:0] [sn:1731].
2328000: system.cpu.iew.lsq.thread0: [lsq_unit_impl.hh] Misprediction. Squashing 2328000: system.cpu.iew.lsq.thread0: PC (0x41cc2e=>0x41cc30).(0=>1), [tid:0] [sn:1728].
2328000: system.cpu.iew.lsq.thread0: [lsq_unit_impl.hh] Misprediction. Squashing 2328000: system.cpu.iew.lsq.thread0: PC (0x41cc2c=>0x41cc2e).(0=>1), [tid:0] [sn:1725].
2328000: system.cpu.iew.lsq.thread0: [lsq_unit_impl.hh] Misprediction. Squashing 2328000: system.cpu.iew.lsq.thread0: PC (0x41cc2a=>0x41cc2c).(0=>1), [tid:0] [sn:1722].
2328000: system.cpu.iew.lsq.thread0: [lsq_unit_impl.hh] Misprediction. Squashing 2328000: system.cpu.iew.lsq.thread0: PC (0x41cc28=>0x41cc2a).(0=>1), [tid:0] [sn:1719].
2328000: system.cpu.iew.lsq.thread0: [lsq_unit_impl.hh] Misprediction. Squashing 2328000: system.cpu.iew.lsq.thread0: PC (0x41cc27=>0x41cc28).(0=>1), [tid:0] [sn:1716].
2328000: system.cpu.iew.lsq.thread0: [lsq_unit_impl.hh] Misprediction. Squashing 2328000: system.cpu.iew.lsq.thread0: PC (0x41cc26=>0x41cc27).(0=>1), [tid:0] [sn:1713].
2340000: system.cpu.commit: [commit_impl.hh] Squashing 2340000: system.cpu.commit: PC (0x41cc26=>0x41cc27).(0=>1), [tid:0] [sn:1681].
2340000: system.cpu.commit: [commit_impl.hh] Squashing 2340000: system.cpu.commit: PC (0x41cc27=>0x41cc28).(0=>1), [tid:0] [sn:1684].
2340000: system.cpu.commit: [commit_impl.hh] Squashing 2340000: system.cpu.commit: PC (0x41cc28=>0x41cc2a).(0=>1), [tid:0] [sn:1687].
2340000: system.cpu.commit: [commit_impl.hh] Squashing 2340000: system.cpu.commit: PC (0x41cc2a=>0x41cc2c).(0=>1), [tid:0] [sn:1690].
2340000: system.cpu.commit: [commit_impl.hh] Squashing 2340000: system.cpu.commit: PC (0x41cc26=>0x41cc27).(0=>1), [tid:0] [sn:1713].
2340000: system.cpu.commit: [commit_impl.hh] Squashing 2340000: system.cpu.commit: PC (0x41cc27=>0x41cc28).(0=>1), [tid:0] [sn:1716].
2340000: system.cpu.commit: [commit_impl.hh] Squashing 2340000: system.cpu.commit: PC (0x41cc28=>0x41cc2a).(0=>1), [tid:0] [sn:1719].
2340000: system.cpu.commit: [commit_impl.hh] Squashing 2340000: system.cpu.commit: PC (0x41cc2a=>0x41cc2c).(0=>1), [tid:0] [sn:1722].
2340000: system.cpu.commit: [commit_impl.hh] Squashing 2340000: system.cpu.commit: PC (0x41cc2c=>0x41cc2e).(0=>1), [tid:0] [sn:1725].
2340000: system.cpu.commit: [commit_impl.hh] Squashing 2340000: system.cpu.commit: PC (0x41cc2e=>0x41cc30).(0=>1), [tid:0] [sn:1728].
2340000: system.cpu.commit: [commit_impl.hh] Squashing 2340000: system.cpu.commit: PC (0x41cc30=>0x41cc32).(0=>1), [tid:0] [sn:1731].
2340000: system.cpu.commit: [commit_impl.hh] Squashing 2340000: system.cpu.commit: PC (0x401570=>0x401576).(1=>2), [tid:0] [sn:1735].
2340000: system.cpu.commit: [commit_impl.hh] Squashing 2340000: system.cpu.commit: PC (0x401587=>0x40158d).(1=>2), [tid:0] [sn:1750].
2349000: system.cpu.iew: [iew_impl.h] Speculative load 2349000: system.cpu.iew: PC (0x41cb9a=>0x41cba1).(0=>1), [tid:0] [sn:1779].
2349000: system.cpu.iew: [iew_impl.h] Speculative load 2349000: system.cpu.iew: PC (0x41cba8=>0x41cbac).(0=>1), [tid:0] [sn:1782].
2351000: system.cpu.iew: [iew_impl.h] Speculative load 2351000: system.cpu.iew: PC (0x41cbb4=>0x41cbb7).(0=>1), [tid:0] [sn:1786].
2354000: system.cpu.iew.lsq.thread0: [lsq_unit_impl.hh] Misprediction. Squashing 2354000: system.cpu.iew.lsq.thread0: PC (0x41cbb4=>0x41cbb7).(0=>1), [tid:0] [sn:1786].
2354000: system.cpu.iew.lsq.thread0: [lsq_unit_impl.hh] Misprediction. Squashing 2354000: system.cpu.iew.lsq.thread0: PC (0x41cba8=>0x41cbac).(0=>1), [tid:0] [sn:1782].
2359000: system.cpu.commit: [commit_impl.hh] Committing 2359000: system.cpu.commit: PC (0x41cb9a=>0x41cba1).(0=>1), [tid:0] [sn:1779].
2359000: system.cpu.commit: [commit_impl.hh] Squashing 2359000: system.cpu.commit: PC (0x41cba8=>0x41cbac).(0=>1), [tid:0] [sn:1782].
2359000: system.cpu.commit: [commit_impl.hh] Squashing 2359000: system.cpu.commit: PC (0x41cbb4=>0x41cbb7).(0=>1), [tid:0] [sn:1786].
2368000: system.cpu.iew: [iew_impl.h] Speculative load 2368000: system.cpu.iew: PC (0x41cbb4=>0x41cbb7).(0=>1), [tid:0] [sn:1864].
2372000: system.cpu.iew: [iew_impl.h] Speculative load 2372000: system.cpu.iew: PC (0x41cc26=>0x41cc27).(0=>1), [tid:0] [sn:1908].
2372000: system.cpu.commit: [commit_impl.hh] Committing 2372000: system.cpu.commit: PC (0x41cbb4=>0x41cbb7).(0=>1), [tid:0] [sn:1864].
2373000: system.cpu.iew: [iew_impl.h] Speculative load 2373000: system.cpu.iew: PC (0x41cc27=>0x41cc28).(0=>1), [tid:0] [sn:1911].
2374000: system.cpu.iew.lsq.thread0: [lsq_unit_impl.hh] Misprediction. Squashing 2374000: system.cpu.iew.lsq.thread0: PC (0x41cc2e=>0x41cc30).(0=>1), [tid:0] [sn:1923].
2374000: system.cpu.iew.lsq.thread0: [lsq_unit_impl.hh] Misprediction. Squashing 2374000: system.cpu.iew.lsq.thread0: PC (0x41cc2c=>0x41cc2e).(0=>1), [tid:0] [sn:1920].
2374000: system.cpu.iew.lsq.thread0: [lsq_unit_impl.hh] Misprediction. Squashing 2374000: system.cpu.iew.lsq.thread0: PC (0x41cc2a=>0x41cc2c).(0=>1), [tid:0] [sn:1917].
2374000: system.cpu.iew.lsq.thread0: [lsq_unit_impl.hh] Misprediction. Squashing 2374000: system.cpu.iew.lsq.thread0: PC (0x41cc28=>0x41cc2a).(0=>1), [tid:0] [sn:1914].
2374000: system.cpu.iew.lsq.thread0: [lsq_unit_impl.hh] Misprediction. Squashing 2374000: system.cpu.iew.lsq.thread0: PC (0x41cc27=>0x41cc28).(0=>1), [tid:0] [sn:1911].
2374000: system.cpu.iew.lsq.thread0: [lsq_unit_impl.hh] Misprediction. Squashing 2374000: system.cpu.iew.lsq.thread0: PC (0x41cc26=>0x41cc27).(0=>1), [tid:0] [sn:1908].
2381000: system.cpu.commit: [commit_impl.hh] Squashing 2381000: system.cpu.commit: PC (0x41cc26=>0x41cc27).(0=>1), [tid:0] [sn:1908].
2381000: system.cpu.commit: [commit_impl.hh] Squashing 2381000: system.cpu.commit: PC (0x41cc27=>0x41cc28).(0=>1), [tid:0] [sn:1911].
2381000: system.cpu.commit: [commit_impl.hh] Squashing 2381000: system.cpu.commit: PC (0x41cc28=>0x41cc2a).(0=>1), [tid:0] [sn:1914].
2381000: system.cpu.commit: [commit_impl.hh] Squashing 2381000: system.cpu.commit: PC (0x41cc2a=>0x41cc2c).(0=>1), [tid:0] [sn:1917].
2381000: system.cpu.commit: [commit_impl.hh] Squashing 2381000: system.cpu.commit: PC (0x41cc2c=>0x41cc2e).(0=>1), [tid:0] [sn:1920].
2381000: system.cpu.commit: [commit_impl.hh] Squashing 2381000: system.cpu.commit: PC (0x41cc2e=>0x41cc30).(0=>1), [tid:0] [sn:1923].
2390000: system.cpu.iew: [iew_impl.h] Speculative load 2390000: system.cpu.iew: PC (0x41cb9a=>0x41cba1).(0=>1), [tid:0] [sn:1955].
2390000: system.cpu.iew: [iew_impl.h] Speculative load 2390000: system.cpu.iew: PC (0x41cba8=>0x41cbac).(0=>1), [tid:0] [sn:1958].
2392000: system.cpu.iew: [iew_impl.h] Speculative load 2392000: system.cpu.iew: PC (0x41cbb4=>0x41cbb7).(0=>1), [tid:0] [sn:1962].
2395000: system.cpu.iew.lsq.thread0: [lsq_unit_impl.hh] Misprediction. Squashing 2395000: system.cpu.iew.lsq.thread0: PC (0x41cbb4=>0x41cbb7).(0=>1), [tid:0] [sn:1962].
2395000: system.cpu.iew.lsq.thread0: [lsq_unit_impl.hh] Misprediction. Squashing 2395000: system.cpu.iew.lsq.thread0: PC (0x41cba8=>0x41cbac).(0=>1), [tid:0] [sn:1958].
2400000: system.cpu.commit: [commit_impl.hh] Committing 2400000: system.cpu.commit: PC (0x41cb9a=>0x41cba1).(0=>1), [tid:0] [sn:1955].
2400000: system.cpu.commit: [commit_impl.hh] Squashing 2400000: system.cpu.commit: PC (0x41cba8=>0x41cbac).(0=>1), [tid:0] [sn:1958].
2400000: system.cpu.commit: [commit_impl.hh] Squashing 2400000: system.cpu.commit: PC (0x41cbb4=>0x41cbb7).(0=>1), [tid:0] [sn:1962].
2409000: system.cpu.iew: [iew_impl.h] Speculative load 2409000: system.cpu.iew: PC (0x41cbb4=>0x41cbb7).(0=>1), [tid:0] [sn:2040].
2413000: system.cpu.iew: [iew_impl.h] Speculative load 2413000: system.cpu.iew: PC (0x41cc26=>0x41cc27).(0=>1), [tid:0] [sn:2084].
2413000: system.cpu.commit: [commit_impl.hh] Committing 2413000: system.cpu.commit: PC (0x41cbb4=>0x41cbb7).(0=>1), [tid:0] [sn:2040].
2414000: system.cpu.iew: [iew_impl.h] Speculative load 2414000: system.cpu.iew: PC (0x41cc27=>0x41cc28).(0=>1), [tid:0] [sn:2087].
2415000: system.cpu.iew.lsq.thread0: [lsq_unit_impl.hh] Misprediction. Squashing 2415000: system.cpu.iew.lsq.thread0: PC (0x41cc2e=>0x41cc30).(0=>1), [tid:0] [sn:2099].
2415000: system.cpu.iew.lsq.thread0: [lsq_unit_impl.hh] Misprediction. Squashing 2415000: system.cpu.iew.lsq.thread0: PC (0x41cc2c=>0x41cc2e).(0=>1), [tid:0] [sn:2096].
2415000: system.cpu.iew.lsq.thread0: [lsq_unit_impl.hh] Misprediction. Squashing 2415000: system.cpu.iew.lsq.thread0: PC (0x41cc2a=>0x41cc2c).(0=>1), [tid:0] [sn:2093].
2415000: system.cpu.iew.lsq.thread0: [lsq_unit_impl.hh] Misprediction. Squashing 2415000: system.cpu.iew.lsq.thread0: PC (0x41cc28=>0x41cc2a).(0=>1), [tid:0] [sn:2090].
2415000: system.cpu.iew.lsq.thread0: [lsq_unit_impl.hh] Misprediction. Squashing 2415000: system.cpu.iew.lsq.thread0: PC (0x41cc27=>0x41cc28).(0=>1), [tid:0] [sn:2087].
2415000: system.cpu.iew.lsq.thread0: [lsq_unit_impl.hh] Misprediction. Squashing 2415000: system.cpu.iew.lsq.thread0: PC (0x41cc26=>0x41cc27).(0=>1), [tid:0] [sn:2084].
2422000: system.cpu.commit: [commit_impl.hh] Squashing 2422000: system.cpu.commit: PC (0x41cc26=>0x41cc27).(0=>1), [tid:0] [sn:2084].
2422000: system.cpu.commit: [commit_impl.hh] Squashing 2422000: system.cpu.commit: PC (0x41cc27=>0x41cc28).(0=>1), [tid:0] [sn:2087].
2422000: system.cpu.commit: [commit_impl.hh] Squashing 2422000: system.cpu.commit: PC (0x41cc28=>0x41cc2a).(0=>1), [tid:0] [sn:2090].
2422000: system.cpu.commit: [commit_impl.hh] Squashing 2422000: system.cpu.commit: PC (0x41cc2a=>0x41cc2c).(0=>1), [tid:0] [sn:2093].
2422000: system.cpu.commit: [commit_impl.hh] Squashing 2422000: system.cpu.commit: PC (0x41cc2c=>0x41cc2e).(0=>1), [tid:0] [sn:2096].
2422000: system.cpu.commit: [commit_impl.hh] Squashing 2422000: system.cpu.commit: PC (0x41cc2e=>0x41cc30).(0=>1), [tid:0] [sn:2099].
2431000: system.cpu.iew: [iew_impl.h] Speculative load 2431000: system.cpu.iew: PC (0x41cb9a=>0x41cba1).(0=>1), [tid:0] [sn:2131].
2431000: system.cpu.iew: [iew_impl.h] Speculative load 2431000: system.cpu.iew: PC (0x41cba8=>0x41cbac).(0=>1), [tid:0] [sn:2134].
2433000: system.cpu.iew: [iew_impl.h] Speculative load 2433000: system.cpu.iew: PC (0x41cbb4=>0x41cbb7).(0=>1), [tid:0] [sn:2138].
2436000: system.cpu.iew.lsq.thread0: [lsq_unit_impl.hh] Misprediction. Squashing 2436000: system.cpu.iew.lsq.thread0: PC (0x41cbb4=>0x41cbb7).(0=>1), [tid:0] [sn:2138].
2436000: system.cpu.iew.lsq.thread0: [lsq_unit_impl.hh] Misprediction. Squashing 2436000: system.cpu.iew.lsq.thread0: PC (0x41cba8=>0x41cbac).(0=>1), [tid:0] [sn:2134].
2441000: system.cpu.commit: [commit_impl.hh] Committing 2441000: system.cpu.commit: PC (0x41cb9a=>0x41cba1).(0=>1), [tid:0] [sn:2131].
2441000: system.cpu.commit: [commit_impl.hh] Squashing 2441000: system.cpu.commit: PC (0x41cba8=>0x41cbac).(0=>1), [tid:0] [sn:2134].
2441000: system.cpu.commit: [commit_impl.hh] Squashing 2441000: system.cpu.commit: PC (0x41cbb4=>0x41cbb7).(0=>1), [tid:0] [sn:2138].
2448000: system.cpu.iew: [iew_impl.h] Speculative load 2448000: system.cpu.iew: PC (0x41cce0=>0x41cce3).(0=>1), [tid:0] [sn:2214].
2450000: system.cpu.iew: [iew_impl.h] Speculative load 2450000: system.cpu.iew: PC (0x41ccf0=>0x41ccf4).(0=>1), [tid:0] [sn:2222].
2451000: system.cpu.iew.lsq.thread0: [lsq_unit_impl.hh] Misprediction. Squashing 2451000: system.cpu.iew.lsq.thread0: PC (0x41ccf0=>0x41ccf4).(0=>1), [tid:0] [sn:2222].
2452000: system.cpu.commit: [commit_impl.hh] Committing 2452000: system.cpu.commit: PC (0x41cce0=>0x41cce3).(0=>1), [tid:0] [sn:2214].
2454000: system.cpu.commit: [commit_impl.hh] Squashing 2454000: system.cpu.commit: PC (0x41ccf0=>0x41ccf4).(0=>1), [tid:0] [sn:2222].
2461000: system.cpu.iew: [iew_impl.h] Speculative load 2461000: system.cpu.iew: PC (0x41cbb4=>0x41cbb7).(0=>1), [tid:0] [sn:2284].
2465000: system.cpu.commit: [commit_impl.hh] Committing 2465000: system.cpu.commit: PC (0x41cbb4=>0x41cbb7).(0=>1), [tid:0] [sn:2284].
2480000: system.cpu.iew: [iew_impl.h] Speculative load 2480000: system.cpu.iew: PC (0x41cb9a=>0x41cba1).(0=>1), [tid:0] [sn:2356].
2482000: system.cpu.iew: [iew_impl.h] Speculative load 2482000: system.cpu.iew: PC (0x41cbb4=>0x41cbb7).(0=>1), [tid:0] [sn:2360].
2484000: system.cpu.iew: [iew_impl.h] Speculative load 2484000: system.cpu.iew: PC (0x41cbb4=>0x41cbb7).(0=>1), [tid:0] [sn:2376].
2484000: system.cpu.iew: [iew_impl.h] Speculative load 2484000: system.cpu.iew: PC (0x41cba8=>0x41cbac).(0=>1), [tid:0] [sn:2391].
2485000: system.cpu.iew.lsq.thread0: [lsq_unit_impl.hh] Misprediction. Squashing 2485000: system.cpu.iew.lsq.thread0: PC (0x41cbb4=>0x41cbb7).(0=>1), [tid:0] [sn:2395].
2485000: system.cpu.iew.lsq.thread0: [lsq_unit_impl.hh] Misprediction. Squashing 2485000: system.cpu.iew.lsq.thread0: PC (0x41cba8=>0x41cbac).(0=>1), [tid:0] [sn:2391].
2485000: system.cpu.iew.lsq.thread0: [lsq_unit_impl.hh] Misprediction. Squashing 2485000: system.cpu.iew.lsq.thread0: PC (0x41cb9a=>0x41cba1).(0=>1), [tid:0] [sn:2388].
2485000: system.cpu.iew.lsq.thread0: [lsq_unit_impl.hh] Misprediction. Squashing 2485000: system.cpu.iew.lsq.thread0: PC (0x41cbb4=>0x41cbb7).(0=>1), [tid:0] [sn:2376].
2485000: system.cpu.iew.lsq.thread0: [lsq_unit_impl.hh] Misprediction. Squashing 2485000: system.cpu.iew.lsq.thread0: PC (0x41cb9a=>0x41cba1).(0=>1), [tid:0] [sn:2372].
2485000: system.cpu.iew.lsq.thread0: [lsq_unit_impl.hh] Misprediction. Squashing 2485000: system.cpu.iew.lsq.thread0: PC (0x41cbb4=>0x41cbb7).(0=>1), [tid:0] [sn:2360].
2490000: system.cpu.commit: [commit_impl.hh] Committing 2490000: system.cpu.commit: PC (0x41cb9a=>0x41cba1).(0=>1), [tid:0] [sn:2356].
2490000: system.cpu.commit: [commit_impl.hh] Squashing 2490000: system.cpu.commit: PC (0x41cbb4=>0x41cbb7).(0=>1), [tid:0] [sn:2360].
2490000: system.cpu.commit: [commit_impl.hh] Squashing 2490000: system.cpu.commit: PC (0x41cb9a=>0x41cba1).(0=>1), [tid:0] [sn:2372].
2490000: system.cpu.commit: [commit_impl.hh] Squashing 2490000: system.cpu.commit: PC (0x41cbb4=>0x41cbb7).(0=>1), [tid:0] [sn:2376].
2490000: system.cpu.commit: [commit_impl.hh] Squashing 2490000: system.cpu.commit: PC (0x41cb9a=>0x41cba1).(0=>1), [tid:0] [sn:2388].
2490000: system.cpu.commit: [commit_impl.hh] Squashing 2490000: system.cpu.commit: PC (0x41cba8=>0x41cbac).(0=>1), [tid:0] [sn:2391].
2490000: system.cpu.commit: [commit_impl.hh] Squashing 2490000: system.cpu.commit: PC (0x41cbb4=>0x41cbb7).(0=>1), [tid:0] [sn:2395].
2497000: system.cpu.iew: [iew_impl.h] Speculative load 2497000: system.cpu.iew: PC (0x41ccb0=>0x41ccb3).(0=>1), [tid:0] [sn:2428].
2499000: system.cpu.iew: [iew_impl.h] Speculative load 2499000: system.cpu.iew: PC (0x41ccc0=>0x41ccc4).(0=>1), [tid:0] [sn:2436].
2499000: system.cpu.iew: [iew_impl.h] Speculative load 2499000: system.cpu.iew: PC (0x41ccd0=>0x41ccd4).(0=>1), [tid:0] [sn:2441].
2500000: system.cpu.iew.lsq.thread0: [lsq_unit_impl.hh] Misprediction. Squashing 2500000: system.cpu.iew.lsq.thread0: PC (0x41cce0=>0x41cce3).(0=>1), [tid:0] [sn:2446].
2500000: system.cpu.iew.lsq.thread0: [lsq_unit_impl.hh] Misprediction. Squashing 2500000: system.cpu.iew.lsq.thread0: PC (0x41ccd0=>0x41ccd4).(0=>1), [tid:0] [sn:2441].
2500000: system.cpu.iew.lsq.thread0: [lsq_unit_impl.hh] Misprediction. Squashing 2500000: system.cpu.iew.lsq.thread0: PC (0x41ccc0=>0x41ccc4).(0=>1), [tid:0] [sn:2436].
2502000: system.cpu.commit: [commit_impl.hh] Committing 2502000: system.cpu.commit: PC (0x41ccb0=>0x41ccb3).(0=>1), [tid:0] [sn:2428].
2503000: system.cpu.commit: [commit_impl.hh] Squashing 2503000: system.cpu.commit: PC (0x41ccc0=>0x41ccc4).(0=>1), [tid:0] [sn:2436].
2503000: system.cpu.commit: [commit_impl.hh] Squashing 2503000: system.cpu.commit: PC (0x41ccd0=>0x41ccd4).(0=>1), [tid:0] [sn:2441].
2503000: system.cpu.commit: [commit_impl.hh] Squashing 2503000: system.cpu.commit: PC (0x41cce0=>0x41cce3).(0=>1), [tid:0] [sn:2446].
2511000: system.cpu.iew: [iew_impl.h] Speculative load 2511000: system.cpu.iew: PC (0x41cbb4=>0x41cbb7).(0=>1), [tid:0] [sn:2500].
2517000: system.cpu.iew: [iew_impl.h] Speculative load 2517000: system.cpu.iew: PC (0x41cc26=>0x41cc27).(0=>1), [tid:0] [sn:2544].
2518000: system.cpu.iew.lsq.thread0: [lsq_unit_impl.hh] Misprediction. Squashing 2518000: system.cpu.iew.lsq.thread0: PC (0x41cc2c=>0x41cc2e).(0=>1), [tid:0] [sn:2556].
2518000: system.cpu.iew.lsq.thread0: [lsq_unit_impl.hh] Misprediction. Squashing 2518000: system.cpu.iew.lsq.thread0: PC (0x41cc2a=>0x41cc2c).(0=>1), [tid:0] [sn:2553].
2518000: system.cpu.iew.lsq.thread0: [lsq_unit_impl.hh] Misprediction. Squashing 2518000: system.cpu.iew.lsq.thread0: PC (0x41cc28=>0x41cc2a).(0=>1), [tid:0] [sn:2550].
2518000: system.cpu.iew.lsq.thread0: [lsq_unit_impl.hh] Misprediction. Squashing 2518000: system.cpu.iew.lsq.thread0: PC (0x41cc27=>0x41cc28).(0=>1), [tid:0] [sn:2547].
2518000: system.cpu.iew.lsq.thread0: [lsq_unit_impl.hh] Misprediction. Squashing 2518000: system.cpu.iew.lsq.thread0: PC (0x41cc26=>0x41cc27).(0=>1), [tid:0] [sn:2544].
2528000: system.cpu.iew: [iew_impl.h] Speculative load 2528000: system.cpu.iew: PC (0x41cc26=>0x41cc27).(0=>1), [tid:0] [sn:2576].
2529000: system.cpu.iew: [iew_impl.h] Speculative load 2529000: system.cpu.iew: PC (0x41cc27=>0x41cc28).(0=>1), [tid:0] [sn:2579].
2530000: system.cpu.iew: [iew_impl.h] Speculative load 2530000: system.cpu.iew: PC (0x41cc28=>0x41cc2a).(0=>1), [tid:0] [sn:2582].
2531000: system.cpu.iew: [iew_impl.h] Speculative load 2531000: system.cpu.iew: PC (0x41cc2a=>0x41cc2c).(0=>1), [tid:0] [sn:2585].
2532000: system.cpu.iew: [iew_impl.h] Speculative load 2532000: system.cpu.iew: PC (0x41cc2c=>0x41cc2e).(0=>1), [tid:0] [sn:2588].
2532000: system.cpu.iew: [iew_impl.h] Speculative load 2532000: system.cpu.iew: PC (0x401570=>0x401576).(1=>2), [tid:0] [sn:2598].
2533000: system.cpu.iew: [iew_impl.h] Speculative load 2533000: system.cpu.iew: PC (0x41cc2e=>0x41cc30).(0=>1), [tid:0] [sn:2591].
2534000: system.cpu.iew: [iew_impl.h] Speculative load 2534000: system.cpu.iew: PC (0x41cc30=>0x41cc32).(0=>1), [tid:0] [sn:2594].
2534000: system.cpu.iew: [iew_impl.h] Speculative load 2534000: system.cpu.iew: PC (0x401587=>0x40158d).(1=>2), [tid:0] [sn:2613].
2535000: system.cpu.iew.lsq.thread0: [lsq_unit_impl.hh] Misprediction. Squashing 2535000: system.cpu.iew.lsq.thread0: PC (0x401587=>0x40158d).(1=>2), [tid:0] [sn:2613].
2549000: system.cpu.iew.lsq.thread0: [lsq_unit_impl.hh] Misprediction. Squashing 2549000: system.cpu.iew.lsq.thread0: PC (0x41d9f8=>0x41d9fb).(0=>1), [tid:0] [sn:2670].
2580000: system.cpu.commit: [commit_impl.hh] Committing 2580000: system.cpu.commit: PC (0x41cbb4=>0x41cbb7).(0=>1), [tid:0] [sn:2500].
2582000: system.cpu.iew.lsq.thread0: [lsq_unit_impl.hh] Misprediction. Squashing 2582000: system.cpu.iew.lsq.thread0: PC (0x401570=>0x401576).(1=>2), [tid:0] [sn:2598].
2582000: system.cpu.iew.lsq.thread0: [lsq_unit_impl.hh] Misprediction. Squashing 2582000: system.cpu.iew.lsq.thread0: PC (0x41cc30=>0x41cc32).(0=>1), [tid:0] [sn:2594].
2582000: system.cpu.iew.lsq.thread0: [lsq_unit_impl.hh] Misprediction. Squashing 2582000: system.cpu.iew.lsq.thread0: PC (0x41cc2e=>0x41cc30).(0=>1), [tid:0] [sn:2591].
2582000: system.cpu.iew.lsq.thread0: [lsq_unit_impl.hh] Misprediction. Squashing 2582000: system.cpu.iew.lsq.thread0: PC (0x41cc2c=>0x41cc2e).(0=>1), [tid:0] [sn:2588].
2582000: system.cpu.iew.lsq.thread0: [lsq_unit_impl.hh] Misprediction. Squashing 2582000: system.cpu.iew.lsq.thread0: PC (0x41cc2a=>0x41cc2c).(0=>1), [tid:0] [sn:2585].
2582000: system.cpu.iew.lsq.thread0: [lsq_unit_impl.hh] Misprediction. Squashing 2582000: system.cpu.iew.lsq.thread0: PC (0x41cc28=>0x41cc2a).(0=>1), [tid:0] [sn:2582].
2582000: system.cpu.iew.lsq.thread0: [lsq_unit_impl.hh] Misprediction. Squashing 2582000: system.cpu.iew.lsq.thread0: PC (0x41cc27=>0x41cc28).(0=>1), [tid:0] [sn:2579].
2582000: system.cpu.iew.lsq.thread0: [lsq_unit_impl.hh] Misprediction. Squashing 2582000: system.cpu.iew.lsq.thread0: PC (0x41cc26=>0x41cc27).(0=>1), [tid:0] [sn:2576].
2598000: system.cpu.commit: [commit_impl.hh] Squashing 2598000: system.cpu.commit: PC (0x41cc26=>0x41cc27).(0=>1), [tid:0] [sn:2544].
2598000: system.cpu.commit: [commit_impl.hh] Squashing 2598000: system.cpu.commit: PC (0x41cc27=>0x41cc28).(0=>1), [tid:0] [sn:2547].
2598000: system.cpu.commit: [commit_impl.hh] Squashing 2598000: system.cpu.commit: PC (0x41cc28=>0x41cc2a).(0=>1), [tid:0] [sn:2550].
2598000: system.cpu.commit: [commit_impl.hh] Squashing 2598000: system.cpu.commit: PC (0x41cc2a=>0x41cc2c).(0=>1), [tid:0] [sn:2553].
2598000: system.cpu.commit: [commit_impl.hh] Squashing 2598000: system.cpu.commit: PC (0x41cc2c=>0x41cc2e).(0=>1), [tid:0] [sn:2556].
2598000: system.cpu.commit: [commit_impl.hh] Squashing 2598000: system.cpu.commit: PC (0x41cc26=>0x41cc27).(0=>1), [tid:0] [sn:2576].
2598000: system.cpu.commit: [commit_impl.hh] Squashing 2598000: system.cpu.commit: PC (0x41cc27=>0x41cc28).(0=>1), [tid:0] [sn:2579].
2598000: system.cpu.commit: [commit_impl.hh] Squashing 2598000: system.cpu.commit: PC (0x41cc28=>0x41cc2a).(0=>1), [tid:0] [sn:2582].
2598000: system.cpu.commit: [commit_impl.hh] Squashing 2598000: system.cpu.commit: PC (0x41cc2a=>0x41cc2c).(0=>1), [tid:0] [sn:2585].
2598000: system.cpu.commit: [commit_impl.hh] Squashing 2598000: system.cpu.commit: PC (0x41cc2c=>0x41cc2e).(0=>1), [tid:0] [sn:2588].
2598000: system.cpu.commit: [commit_impl.hh] Squashing 2598000: system.cpu.commit: PC (0x41cc2e=>0x41cc30).(0=>1), [tid:0] [sn:2591].
2598000: system.cpu.commit: [commit_impl.hh] Squashing 2598000: system.cpu.commit: PC (0x41cc30=>0x41cc32).(0=>1), [tid:0] [sn:2594].
2598000: system.cpu.commit: [commit_impl.hh] Squashing 2598000: system.cpu.commit: PC (0x401570=>0x401576).(1=>2), [tid:0] [sn:2598].
2598000: system.cpu.commit: [commit_impl.hh] Squashing 2598000: system.cpu.commit: PC (0x401587=>0x40158d).(1=>2), [tid:0] [sn:2613].
2598000: system.cpu.commit: [commit_impl.hh] Squashing 2598000: system.cpu.commit: PC (0x41d9f8=>0x41d9fb).(0=>1), [tid:0] [sn:2670].
2607000: system.cpu.iew: [iew_impl.h] Speculative load 2607000: system.cpu.iew: PC (0x41cb9a=>0x41cba1).(0=>1), [tid:0] [sn:2680].
2607000: system.cpu.iew: [iew_impl.h] Speculative load 2607000: system.cpu.iew: PC (0x41cba8=>0x41cbac).(0=>1), [tid:0] [sn:2683].
2609000: system.cpu.iew: [iew_impl.h] Speculative load 2609000: system.cpu.iew: PC (0x41cbb4=>0x41cbb7).(0=>1), [tid:0] [sn:2687].
2609000: system.cpu.iew: [iew_impl.h] Speculative load 2609000: system.cpu.iew: PC (0x41cba8=>0x41cbac).(0=>1), [tid:0] [sn:2702].
2611000: system.cpu.iew: [iew_impl.h] Speculative load 2611000: system.cpu.iew: PC (0x41cbb4=>0x41cbb7).(0=>1), [tid:0] [sn:2706].
2612000: system.cpu.iew.lsq.thread0: [lsq_unit_impl.hh] Misprediction. Squashing 2612000: system.cpu.iew.lsq.thread0: PC (0x41cbb4=>0x41cbb7).(0=>1), [tid:0] [sn:2706].
2612000: system.cpu.iew.lsq.thread0: [lsq_unit_impl.hh] Misprediction. Squashing 2612000: system.cpu.iew.lsq.thread0: PC (0x41cba8=>0x41cbac).(0=>1), [tid:0] [sn:2702].
2612000: system.cpu.iew.lsq.thread0: [lsq_unit_impl.hh] Misprediction. Squashing 2612000: system.cpu.iew.lsq.thread0: PC (0x41cb9a=>0x41cba1).(0=>1), [tid:0] [sn:2699].
2612000: system.cpu.iew.lsq.thread0: [lsq_unit_impl.hh] Misprediction. Squashing 2612000: system.cpu.iew.lsq.thread0: PC (0x41cbb4=>0x41cbb7).(0=>1), [tid:0] [sn:2687].
2612000: system.cpu.iew.lsq.thread0: [lsq_unit_impl.hh] Misprediction. Squashing 2612000: system.cpu.iew.lsq.thread0: PC (0x41cba8=>0x41cbac).(0=>1), [tid:0] [sn:2683].
2617000: system.cpu.commit: [commit_impl.hh] Committing 2617000: system.cpu.commit: PC (0x41cb9a=>0x41cba1).(0=>1), [tid:0] [sn:2680].
2617000: system.cpu.commit: [commit_impl.hh] Squashing 2617000: system.cpu.commit: PC (0x41cba8=>0x41cbac).(0=>1), [tid:0] [sn:2683].
2617000: system.cpu.commit: [commit_impl.hh] Squashing 2617000: system.cpu.commit: PC (0x41cbb4=>0x41cbb7).(0=>1), [tid:0] [sn:2687].
2617000: system.cpu.commit: [commit_impl.hh] Squashing 2617000: system.cpu.commit: PC (0x41cb9a=>0x41cba1).(0=>1), [tid:0] [sn:2699].
2617000: system.cpu.commit: [commit_impl.hh] Squashing 2617000: system.cpu.commit: PC (0x41cba8=>0x41cbac).(0=>1), [tid:0] [sn:2702].
2617000: system.cpu.commit: [commit_impl.hh] Squashing 2617000: system.cpu.commit: PC (0x41cbb4=>0x41cbb7).(0=>1), [tid:0] [sn:2706].
2624000: system.cpu.iew: [iew_impl.h] Speculative load 2624000: system.cpu.iew: PC (0x41cca0=>0x41cca3).(0=>1), [tid:0] [sn:2755].
2626000: system.cpu.iew: [iew_impl.h] Speculative load 2626000: system.cpu.iew: PC (0x41ccb0=>0x41ccb3).(0=>1), [tid:0] [sn:2763].
2627000: system.cpu.iew.lsq.thread0: [lsq_unit_impl.hh] Misprediction. Squashing 2627000: system.cpu.iew.lsq.thread0: PC (0x41ccd0=>0x41ccd4).(0=>1), [tid:0] [sn:2776].
2627000: system.cpu.iew.lsq.thread0: [lsq_unit_impl.hh] Misprediction. Squashing 2627000: system.cpu.iew.lsq.thread0: PC (0x41ccc0=>0x41ccc4).(0=>1), [tid:0] [sn:2771].
2627000: system.cpu.iew.lsq.thread0: [lsq_unit_impl.hh] Misprediction. Squashing 2627000: system.cpu.iew.lsq.thread0: PC (0x41ccb0=>0x41ccb3).(0=>1), [tid:0] [sn:2763].
2629000: system.cpu.commit: [commit_impl.hh] Committing 2629000: system.cpu.commit: PC (0x41cca0=>0x41cca3).(0=>1), [tid:0] [sn:2755].
2630000: system.cpu.commit: [commit_impl.hh] Squashing 2630000: system.cpu.commit: PC (0x41ccb0=>0x41ccb3).(0=>1), [tid:0] [sn:2763].
2630000: system.cpu.commit: [commit_impl.hh] Squashing 2630000: system.cpu.commit: PC (0x41ccc0=>0x41ccc4).(0=>1), [tid:0] [sn:2771].
2630000: system.cpu.commit: [commit_impl.hh] Squashing 2630000: system.cpu.commit: PC (0x41ccd0=>0x41ccd4).(0=>1), [tid:0] [sn:2776].
2638000: system.cpu.iew: [iew_impl.h] Speculative load 2638000: system.cpu.iew: PC (0x41cbb4=>0x41cbb7).(0=>1), [tid:0] [sn:2835].
2639000: system.cpu.iew: [iew_impl.h] Speculative load 2639000: system.cpu.iew: PC (0x41cba8=>0x41cbac).(0=>1), [tid:0] [sn:2850].
2641000: system.cpu.iew: [iew_impl.h] Speculative load 2641000: system.cpu.iew: PC (0x41cbb4=>0x41cbb7).(0=>1), [tid:0] [sn:2854].
2641000: system.cpu.iew: [iew_impl.h] Speculative load 2641000: system.cpu.iew: PC (0x41cba8=>0x41cbac).(0=>1), [tid:0] [sn:2869].
2642000: system.cpu.iew: [iew_impl.h] Speculative load 2642000: system.cpu.iew: PC (0x41cb9a=>0x41cba1).(0=>1), [tid:0] [sn:2847].
2642000: system.cpu.commit: [commit_impl.hh] Committing 2642000: system.cpu.commit: PC (0x41cbb4=>0x41cbb7).(0=>1), [tid:0] [sn:2835].
2643000: system.cpu.iew: [iew_impl.h] Speculative load 2643000: system.cpu.iew: PC (0x41cbb4=>0x41cbb7).(0=>1), [tid:0] [sn:2873].
2645000: system.cpu.iew: [iew_impl.h] Speculative load 2645000: system.cpu.iew: PC (0x41cb9a=>0x41cba1).(0=>1), [tid:0] [sn:2866].
2647000: system.cpu.iew.lsq.thread0: [lsq_unit_impl.hh] Misprediction. Squashing 2647000: system.cpu.iew.lsq.thread0: PC (0x41cbb4=>0x41cbb7).(0=>1), [tid:0] [sn:2873].
2647000: system.cpu.iew.lsq.thread0: [lsq_unit_impl.hh] Misprediction. Squashing 2647000: system.cpu.iew.lsq.thread0: PC (0x41cba8=>0x41cbac).(0=>1), [tid:0] [sn:2869].
2647000: system.cpu.iew.lsq.thread0: [lsq_unit_impl.hh] Misprediction. Squashing 2647000: system.cpu.iew.lsq.thread0: PC (0x41cb9a=>0x41cba1).(0=>1), [tid:0] [sn:2866].
2647000: system.cpu.iew.lsq.thread0: [lsq_unit_impl.hh] Misprediction. Squashing 2647000: system.cpu.iew.lsq.thread0: PC (0x41cbb4=>0x41cbb7).(0=>1), [tid:0] [sn:2854].
2647000: system.cpu.iew.lsq.thread0: [lsq_unit_impl.hh] Misprediction. Squashing 2647000: system.cpu.iew.lsq.thread0: PC (0x41cba8=>0x41cbac).(0=>1), [tid:0] [sn:2850].
2654000: system.cpu.commit: [commit_impl.hh] Committing 2654000: system.cpu.commit: PC (0x41cb9a=>0x41cba1).(0=>1), [tid:0] [sn:2847].
2654000: system.cpu.commit: [commit_impl.hh] Squashing 2654000: system.cpu.commit: PC (0x41cba8=>0x41cbac).(0=>1), [tid:0] [sn:2850].
2654000: system.cpu.commit: [commit_impl.hh] Squashing 2654000: system.cpu.commit: PC (0x41cbb4=>0x41cbb7).(0=>1), [tid:0] [sn:2854].
2654000: system.cpu.commit: [commit_impl.hh] Squashing 2654000: system.cpu.commit: PC (0x41cb9a=>0x41cba1).(0=>1), [tid:0] [sn:2866].
2654000: system.cpu.commit: [commit_impl.hh] Squashing 2654000: system.cpu.commit: PC (0x41cba8=>0x41cbac).(0=>1), [tid:0] [sn:2869].
2654000: system.cpu.commit: [commit_impl.hh] Squashing 2654000: system.cpu.commit: PC (0x41cbb4=>0x41cbb7).(0=>1), [tid:0] [sn:2873].
2661000: system.cpu.iew: [iew_impl.h] Speculative load 2661000: system.cpu.iew: PC (0x41cc90=>0x41cc93).(0=>1), [tid:0] [sn:2938].
2663000: system.cpu.iew: [iew_impl.h] Speculative load 2663000: system.cpu.iew: PC (0x41cca0=>0x41cca3).(0=>1), [tid:0] [sn:2946].
2664000: system.cpu.iew.lsq.thread0: [lsq_unit_impl.hh] Misprediction. Squashing 2664000: system.cpu.iew.lsq.thread0: PC (0x41ccb0=>0x41ccb3).(0=>1), [tid:0] [sn:2954].
2664000: system.cpu.iew.lsq.thread0: [lsq_unit_impl.hh] Misprediction. Squashing 2664000: system.cpu.iew.lsq.thread0: PC (0x41cca0=>0x41cca3).(0=>1), [tid:0] [sn:2946].
2666000: system.cpu.commit: [commit_impl.hh] Committing 2666000: system.cpu.commit: PC (0x41cc90=>0x41cc93).(0=>1), [tid:0] [sn:2938].
2667000: system.cpu.commit: [commit_impl.hh] Squashing 2667000: system.cpu.commit: PC (0x41cca0=>0x41cca3).(0=>1), [tid:0] [sn:2946].
2667000: system.cpu.commit: [commit_impl.hh] Squashing 2667000: system.cpu.commit: PC (0x41ccb0=>0x41ccb3).(0=>1), [tid:0] [sn:2954].
2675000: system.cpu.iew: [iew_impl.h] Speculative load 2675000: system.cpu.iew: PC (0x41cbb4=>0x41cbb7).(0=>1), [tid:0] [sn:3011].
2679000: system.cpu.commit: [commit_impl.hh] Committing 2679000: system.cpu.commit: PC (0x41cbb4=>0x41cbb7).(0=>1), [tid:0] [sn:3011].
2681000: system.cpu.iew.lsq.thread0: [lsq_unit_impl.hh] Misprediction. Squashing 2681000: system.cpu.iew.lsq.thread0: PC (0x41cc27=>0x41cc28).(0=>1), [tid:0] [sn:3058].
2681000: system.cpu.iew.lsq.thread0: [lsq_unit_impl.hh] Misprediction. Squashing 2681000: system.cpu.iew.lsq.thread0: PC (0x41cc26=>0x41cc27).(0=>1), [tid:0] [sn:3055].
2686000: system.cpu.commit: [commit_impl.hh] Squashing 2686000: system.cpu.commit: PC (0x41cc26=>0x41cc27).(0=>1), [tid:0] [sn:3055].
2686000: system.cpu.commit: [commit_impl.hh] Squashing 2686000: system.cpu.commit: PC (0x41cc27=>0x41cc28).(0=>1), [tid:0] [sn:3058].
2695000: system.cpu.iew: [iew_impl.h] Speculative load 2695000: system.cpu.iew: PC (0x41cb9a=>0x41cba1).(0=>1), [tid:0] [sn:3091].
2695000: system.cpu.iew: [iew_impl.h] Speculative load 2695000: system.cpu.iew: PC (0x41cba8=>0x41cbac).(0=>1), [tid:0] [sn:3094].
2697000: system.cpu.iew: [iew_impl.h] Speculative load 2697000: system.cpu.iew: PC (0x41cbb4=>0x41cbb7).(0=>1), [tid:0] [sn:3098].
2697000: system.cpu.iew: [iew_impl.h] Speculative load 2697000: system.cpu.iew: PC (0x41cba8=>0x41cbac).(0=>1), [tid:0] [sn:3113].
2699000: system.cpu.iew: [iew_impl.h] Speculative load 2699000: system.cpu.iew: PC (0x41cbb4=>0x41cbb7).(0=>1), [tid:0] [sn:3117].
2701000: system.cpu.iew: [iew_impl.h] Speculative load 2701000: system.cpu.iew: PC (0x41cb9a=>0x41cba1).(0=>1), [tid:0] [sn:3110].
2704000: system.cpu.iew: [iew_impl.h] Speculative load 2704000: system.cpu.iew: PC (0x41cc26=>0x41cc27).(0=>1), [tid:0] [sn:3161].
2705000: system.cpu.iew: [iew_impl.h] Speculative load 2705000: system.cpu.iew: PC (0x41cc27=>0x41cc28).(0=>1), [tid:0] [sn:3164].
2706000: system.cpu.iew: [iew_impl.h] Speculative load 2706000: system.cpu.iew: PC (0x41cc28=>0x41cc2a).(0=>1), [tid:0] [sn:3167].
2707000: system.cpu.iew: [iew_impl.h] Speculative load 2707000: system.cpu.iew: PC (0x41cc2a=>0x41cc2c).(0=>1), [tid:0] [sn:3170].
2708000: system.cpu.iew: [iew_impl.h] Speculative load 2708000: system.cpu.iew: PC (0x41cc2c=>0x41cc2e).(0=>1), [tid:0] [sn:3173].
2709000: system.cpu.iew: [iew_impl.h] Speculative load 2709000: system.cpu.iew: PC (0x41cc2e=>0x41cc30).(0=>1), [tid:0] [sn:3176].
2709000: system.cpu.iew: [iew_impl.h] Speculative load 2709000: system.cpu.iew: PC (0x401570=>0x401576).(1=>2), [tid:0] [sn:3183].
2710000: system.cpu.iew: [iew_impl.h] Speculative load 2710000: system.cpu.iew: PC (0x41cc30=>0x41cc32).(0=>1), [tid:0] [sn:3179].
2712000: system.cpu.iew.lsq.thread0: [lsq_unit_impl.hh] Misprediction. Squashing 2712000: system.cpu.iew.lsq.thread0: PC (0x401587=>0x40158d).(1=>2), [tid:0] [sn:3198].
2725000: system.cpu.iew.lsq.thread0: [lsq_unit_impl.hh] Misprediction. Squashing 2725000: system.cpu.iew.lsq.thread0: PC (0x41da03=>0x41da07).(0=>1), [tid:0] [sn:3255].
2725000: system.cpu.iew.lsq.thread0: [lsq_unit_impl.hh] Misprediction. Squashing 2725000: system.cpu.iew.lsq.thread0: PC (0x41d9f8=>0x41d9fb).(0=>1), [tid:0] [sn:3247].
2744000: system.cpu.iew.lsq.thread0: [lsq_unit_impl.hh] Misprediction. Squashing 2744000: system.cpu.iew.lsq.thread0: PC (0x401570=>0x401576).(1=>2), [tid:0] [sn:3183].
2744000: system.cpu.iew.lsq.thread0: [lsq_unit_impl.hh] Misprediction. Squashing 2744000: system.cpu.iew.lsq.thread0: PC (0x41cc30=>0x41cc32).(0=>1), [tid:0] [sn:3179].
2744000: system.cpu.iew.lsq.thread0: [lsq_unit_impl.hh] Misprediction. Squashing 2744000: system.cpu.iew.lsq.thread0: PC (0x41cc2e=>0x41cc30).(0=>1), [tid:0] [sn:3176].
2744000: system.cpu.iew.lsq.thread0: [lsq_unit_impl.hh] Misprediction. Squashing 2744000: system.cpu.iew.lsq.thread0: PC (0x41cc2c=>0x41cc2e).(0=>1), [tid:0] [sn:3173].
2744000: system.cpu.iew.lsq.thread0: [lsq_unit_impl.hh] Misprediction. Squashing 2744000: system.cpu.iew.lsq.thread0: PC (0x41cc2a=>0x41cc2c).(0=>1), [tid:0] [sn:3170].
2744000: system.cpu.iew.lsq.thread0: [lsq_unit_impl.hh] Misprediction. Squashing 2744000: system.cpu.iew.lsq.thread0: PC (0x41cc28=>0x41cc2a).(0=>1), [tid:0] [sn:3167].
2744000: system.cpu.iew.lsq.thread0: [lsq_unit_impl.hh] Misprediction. Squashing 2744000: system.cpu.iew.lsq.thread0: PC (0x41cc27=>0x41cc28).(0=>1), [tid:0] [sn:3164].
2744000: system.cpu.iew.lsq.thread0: [lsq_unit_impl.hh] Misprediction. Squashing 2744000: system.cpu.iew.lsq.thread0: PC (0x41cc26=>0x41cc27).(0=>1), [tid:0] [sn:3161].
2744000: system.cpu.iew.lsq.thread0: [lsq_unit_impl.hh] Misprediction. Squashing 2744000: system.cpu.iew.lsq.thread0: PC (0x41cbb4=>0x41cbb7).(0=>1), [tid:0] [sn:3117].
2744000: system.cpu.iew.lsq.thread0: [lsq_unit_impl.hh] Misprediction. Squashing 2744000: system.cpu.iew.lsq.thread0: PC (0x41cba8=>0x41cbac).(0=>1), [tid:0] [sn:3113].
2744000: system.cpu.iew.lsq.thread0: [lsq_unit_impl.hh] Misprediction. Squashing 2744000: system.cpu.iew.lsq.thread0: PC (0x41cb9a=>0x41cba1).(0=>1), [tid:0] [sn:3110].
2744000: system.cpu.iew.lsq.thread0: [lsq_unit_impl.hh] Misprediction. Squashing 2744000: system.cpu.iew.lsq.thread0: PC (0x41cbb4=>0x41cbb7).(0=>1), [tid:0] [sn:3098].
2744000: system.cpu.iew.lsq.thread0: [lsq_unit_impl.hh] Misprediction. Squashing 2744000: system.cpu.iew.lsq.thread0: PC (0x41cba8=>0x41cbac).(0=>1), [tid:0] [sn:3094].
2763000: system.cpu.commit: [commit_impl.hh] Committing 2763000: system.cpu.commit: PC (0x41cb9a=>0x41cba1).(0=>1), [tid:0] [sn:3091].
2763000: system.cpu.commit: [commit_impl.hh] Squashing 2763000: system.cpu.commit: PC (0x41cba8=>0x41cbac).(0=>1), [tid:0] [sn:3094].
2763000: system.cpu.commit: [commit_impl.hh] Squashing 2763000: system.cpu.commit: PC (0x41cbb4=>0x41cbb7).(0=>1), [tid:0] [sn:3098].
2763000: system.cpu.commit: [commit_impl.hh] Squashing 2763000: system.cpu.commit: PC (0x41cb9a=>0x41cba1).(0=>1), [tid:0] [sn:3110].
2763000: system.cpu.commit: [commit_impl.hh] Squashing 2763000: system.cpu.commit: PC (0x41cba8=>0x41cbac).(0=>1), [tid:0] [sn:3113].
2763000: system.cpu.commit: [commit_impl.hh] Squashing 2763000: system.cpu.commit: PC (0x41cbb4=>0x41cbb7).(0=>1), [tid:0] [sn:3117].
2763000: system.cpu.commit: [commit_impl.hh] Squashing 2763000: system.cpu.commit: PC (0x41cc26=>0x41cc27).(0=>1), [tid:0] [sn:3161].
2763000: system.cpu.commit: [commit_impl.hh] Squashing 2763000: system.cpu.commit: PC (0x41cc27=>0x41cc28).(0=>1), [tid:0] [sn:3164].
2763000: system.cpu.commit: [commit_impl.hh] Squashing 2763000: system.cpu.commit: PC (0x41cc28=>0x41cc2a).(0=>1), [tid:0] [sn:3167].
2763000: system.cpu.commit: [commit_impl.hh] Squashing 2763000: system.cpu.commit: PC (0x41cc2a=>0x41cc2c).(0=>1), [tid:0] [sn:3170].
2763000: system.cpu.commit: [commit_impl.hh] Squashing 2763000: system.cpu.commit: PC (0x41cc2c=>0x41cc2e).(0=>1), [tid:0] [sn:3173].
2763000: system.cpu.commit: [commit_impl.hh] Squashing 2763000: system.cpu.commit: PC (0x41cc2e=>0x41cc30).(0=>1), [tid:0] [sn:3176].
2763000: system.cpu.commit: [commit_impl.hh] Squashing 2763000: system.cpu.commit: PC (0x41cc30=>0x41cc32).(0=>1), [tid:0] [sn:3179].
2763000: system.cpu.commit: [commit_impl.hh] Squashing 2763000: system.cpu.commit: PC (0x401570=>0x401576).(1=>2), [tid:0] [sn:3183].
2763000: system.cpu.commit: [commit_impl.hh] Squashing 2763000: system.cpu.commit: PC (0x401587=>0x40158d).(1=>2), [tid:0] [sn:3198].
2763000: system.cpu.commit: [commit_impl.hh] Squashing 2763000: system.cpu.commit: PC (0x41d9f8=>0x41d9fb).(0=>1), [tid:0] [sn:3247].
2763000: system.cpu.commit: [commit_impl.hh] Squashing 2763000: system.cpu.commit: PC (0x41da03=>0x41da07).(0=>1), [tid:0] [sn:3255].
2770000: system.cpu.iew: [iew_impl.h] Speculative load 2770000: system.cpu.iew: PC (0x41cc58=>0x41cc5c).(0=>1), [tid:0] [sn:3334].
2770000: system.cpu.iew: [iew_impl.h] Speculative load 2770000: system.cpu.iew: PC (0x41cc70=>0x41cc74).(0=>1), [tid:0] [sn:3341].
2772000: system.cpu.iew: [iew_impl.h] Speculative load 2772000: system.cpu.iew: PC (0x41cc80=>0x41cc84).(0=>1), [tid:0] [sn:3346].
2773000: system.cpu.iew.lsq.thread0: [lsq_unit_impl.hh] Misprediction. Squashing 2773000: system.cpu.iew.lsq.thread0: PC (0x41cc90=>0x41cc93).(0=>1), [tid:0] [sn:3351].
2773000: system.cpu.iew.lsq.thread0: [lsq_unit_impl.hh] Misprediction. Squashing 2773000: system.cpu.iew.lsq.thread0: PC (0x41cc80=>0x41cc84).(0=>1), [tid:0] [sn:3346].
2773000: system.cpu.iew.lsq.thread0: [lsq_unit_impl.hh] Misprediction. Squashing 2773000: system.cpu.iew.lsq.thread0: PC (0x41cc70=>0x41cc74).(0=>1), [tid:0] [sn:3341].
2775000: system.cpu.commit: [commit_impl.hh] Committing 2775000: system.cpu.commit: PC (0x41cc58=>0x41cc5c).(0=>1), [tid:0] [sn:3334].
2775000: system.cpu.commit: [commit_impl.hh] Squashing 2775000: system.cpu.commit: PC (0x41cc70=>0x41cc74).(0=>1), [tid:0] [sn:3341].
2775000: system.cpu.commit: [commit_impl.hh] Squashing 2775000: system.cpu.commit: PC (0x41cc80=>0x41cc84).(0=>1), [tid:0] [sn:3346].
2775000: system.cpu.commit: [commit_impl.hh] Squashing 2775000: system.cpu.commit: PC (0x41cc90=>0x41cc93).(0=>1), [tid:0] [sn:3351].
2784000: system.cpu.iew: [iew_impl.h] Speculative load 2784000: system.cpu.iew: PC (0x41cbb4=>0x41cbb7).(0=>1), [tid:0] [sn:3400].
2788000: system.cpu.commit: [commit_impl.hh] Committing 2788000: system.cpu.commit: PC (0x41cbb4=>0x41cbb7).(0=>1), [tid:0] [sn:3400].
2790000: system.cpu.iew.lsq.thread0: [lsq_unit_impl.hh] Misprediction. Squashing 2790000: system.cpu.iew.lsq.thread0: PC (0x41cc27=>0x41cc28).(0=>1), [tid:0] [sn:3447].
2790000: system.cpu.iew.lsq.thread0: [lsq_unit_impl.hh] Misprediction. Squashing 2790000: system.cpu.iew.lsq.thread0: PC (0x41cc26=>0x41cc27).(0=>1), [tid:0] [sn:3444].
2795000: system.cpu.commit: [commit_impl.hh] Squashing 2795000: system.cpu.commit: PC (0x41cc26=>0x41cc27).(0=>1), [tid:0] [sn:3444].
2795000: system.cpu.commit: [commit_impl.hh] Squashing 2795000: system.cpu.commit: PC (0x41cc27=>0x41cc28).(0=>1), [tid:0] [sn:3447].
2804000: system.cpu.iew: [iew_impl.h] Speculative load 2804000: system.cpu.iew: PC (0x41cb9a=>0x41cba1).(0=>1), [tid:0] [sn:3480].
2804000: system.cpu.iew: [iew_impl.h] Speculative load 2804000: system.cpu.iew: PC (0x41cba8=>0x41cbac).(0=>1), [tid:0] [sn:3483].
2806000: system.cpu.iew: [iew_impl.h] Speculative load 2806000: system.cpu.iew: PC (0x41cbb4=>0x41cbb7).(0=>1), [tid:0] [sn:3487].
2809000: system.cpu.iew.lsq.thread0: [lsq_unit_impl.hh] Misprediction. Squashing 2809000: system.cpu.iew.lsq.thread0: PC (0x41cbb4=>0x41cbb7).(0=>1), [tid:0] [sn:3487].
2809000: system.cpu.iew.lsq.thread0: [lsq_unit_impl.hh] Misprediction. Squashing 2809000: system.cpu.iew.lsq.thread0: PC (0x41cba8=>0x41cbac).(0=>1), [tid:0] [sn:3483].
2814000: system.cpu.commit: [commit_impl.hh] Committing 2814000: system.cpu.commit: PC (0x41cb9a=>0x41cba1).(0=>1), [tid:0] [sn:3480].
2814000: system.cpu.commit: [commit_impl.hh] Squashing 2814000: system.cpu.commit: PC (0x41cba8=>0x41cbac).(0=>1), [tid:0] [sn:3483].
2814000: system.cpu.commit: [commit_impl.hh] Squashing 2814000: system.cpu.commit: PC (0x41cbb4=>0x41cbb7).(0=>1), [tid:0] [sn:3487].
2821000: system.cpu.iew: [iew_impl.h] Speculative load 2821000: system.cpu.iew: PC (0x41cc48=>0x41cc4c).(0=>1), [tid:0] [sn:3563].
2821000: system.cpu.iew: [iew_impl.h] Speculative load 2821000: system.cpu.iew: PC (0x41cc58=>0x41cc5c).(0=>1), [tid:0] [sn:3568].
2823000: system.cpu.iew: [iew_impl.h] Speculative load 2823000: system.cpu.iew: PC (0x41cc70=>0x41cc74).(0=>1), [tid:0] [sn:3575].
2824000: system.cpu.iew.lsq.thread0: [lsq_unit_impl.hh] Misprediction. Squashing 2824000: system.cpu.iew.lsq.thread0: PC (0x41cc90=>0x41cc93).(0=>1), [tid:0] [sn:3585].
2824000: system.cpu.iew.lsq.thread0: [lsq_unit_impl.hh] Misprediction. Squashing 2824000: system.cpu.iew.lsq.thread0: PC (0x41cc80=>0x41cc84).(0=>1), [tid:0] [sn:3580].
2824000: system.cpu.iew.lsq.thread0: [lsq_unit_impl.hh] Misprediction. Squashing 2824000: system.cpu.iew.lsq.thread0: PC (0x41cc70=>0x41cc74).(0=>1), [tid:0] [sn:3575].
2824000: system.cpu.iew.lsq.thread0: [lsq_unit_impl.hh] Misprediction. Squashing 2824000: system.cpu.iew.lsq.thread0: PC (0x41cc58=>0x41cc5c).(0=>1), [tid:0] [sn:3568].
2826000: system.cpu.commit: [commit_impl.hh] Committing 2826000: system.cpu.commit: PC (0x41cc48=>0x41cc4c).(0=>1), [tid:0] [sn:3563].
2826000: system.cpu.commit: [commit_impl.hh] Squashing 2826000: system.cpu.commit: PC (0x41cc58=>0x41cc5c).(0=>1), [tid:0] [sn:3568].
2826000: system.cpu.commit: [commit_impl.hh] Squashing 2826000: system.cpu.commit: PC (0x41cc70=>0x41cc74).(0=>1), [tid:0] [sn:3575].
2826000: system.cpu.commit: [commit_impl.hh] Squashing 2826000: system.cpu.commit: PC (0x41cc80=>0x41cc84).(0=>1), [tid:0] [sn:3580].
2826000: system.cpu.commit: [commit_impl.hh] Squashing 2826000: system.cpu.commit: PC (0x41cc90=>0x41cc93).(0=>1), [tid:0] [sn:3585].
2835000: system.cpu.iew: [iew_impl.h] Speculative load 2835000: system.cpu.iew: PC (0x41cbb4=>0x41cbb7).(0=>1), [tid:0] [sn:3634].
2839000: system.cpu.commit: [commit_impl.hh] Committing 2839000: system.cpu.commit: PC (0x41cbb4=>0x41cbb7).(0=>1), [tid:0] [sn:3634].
2841000: system.cpu.iew.lsq.thread0: [lsq_unit_impl.hh] Misprediction. Squashing 2841000: system.cpu.iew.lsq.thread0: PC (0x41cc27=>0x41cc28).(0=>1), [tid:0] [sn:3681].
2841000: system.cpu.iew.lsq.thread0: [lsq_unit_impl.hh] Misprediction. Squashing 2841000: system.cpu.iew.lsq.thread0: PC (0x41cc26=>0x41cc27).(0=>1), [tid:0] [sn:3678].
2846000: system.cpu.commit: [commit_impl.hh] Squashing 2846000: system.cpu.commit: PC (0x41cc26=>0x41cc27).(0=>1), [tid:0] [sn:3678].
2846000: system.cpu.commit: [commit_impl.hh] Squashing 2846000: system.cpu.commit: PC (0x41cc27=>0x41cc28).(0=>1), [tid:0] [sn:3681].
[...]
44269000: system.cpu.commit: [commit_impl.hh] Committing 44269000: system.cpu.commit: PC (0x401390=>0x401393).(0=>1), [tid:0] [sn:60091].
44270000: system.cpu.iew: [iew_impl.h] Speculative load 44270000: system.cpu.iew: PC (0x401390=>0x401393).(0=>1), [tid:0] [sn:60105].
44270000: system.cpu.iew: [iew_impl.h] Speculative load 44270000: system.cpu.iew: PC (0x401380=>0x401383).(0=>1), [tid:0] [sn:60111].
44270000: system.cpu.iew: [iew_impl.h] Speculative load 44270000: system.cpu.iew: PC (0x40138c=>0x401390).(1=>2), [tid:0] [sn:60116].
44271000: system.cpu.commit: [commit_impl.hh] Committing 44271000: system.cpu.commit: PC (0x401380=>0x401383).(0=>1), [tid:0] [sn:60097].
44271000: system.cpu.commit: [commit_impl.hh] Committing 44271000: system.cpu.commit: PC (0x40138c=>0x401390).(1=>2), [tid:0] [sn:60102].
44273000: system.cpu.commit: [commit_impl.hh] Committing 44273000: system.cpu.commit: PC (0x401390=>0x401393).(0=>1), [tid:0] [sn:60105].
44274000: system.cpu.iew: [iew_impl.h] Speculative load 44274000: system.cpu.iew: PC (0x401390=>0x401393).(0=>1), [tid:0] [sn:60119].
44274000: system.cpu.iew: [iew_impl.h] Speculative load 44274000: system.cpu.iew: PC (0x401380=>0x401383).(0=>1), [tid:0] [sn:60125].
44274000: system.cpu.iew: [iew_impl.h] Speculative load 44274000: system.cpu.iew: PC (0x40138c=>0x401390).(1=>2), [tid:0] [sn:60130].
44275000: system.cpu.commit: [commit_impl.hh] Committing 44275000: system.cpu.commit: PC (0x401380=>0x401383).(0=>1), [tid:0] [sn:60111].
44275000: system.cpu.commit: [commit_impl.hh] Committing 44275000: system.cpu.commit: PC (0x40138c=>0x401390).(1=>2), [tid:0] [sn:60116].
44277000: system.cpu.commit: [commit_impl.hh] Committing 44277000: system.cpu.commit: PC (0x401390=>0x401393).(0=>1), [tid:0] [sn:60119].
44278000: system.cpu.iew: [iew_impl.h] Speculative load 44278000: system.cpu.iew: PC (0x401390=>0x401393).(0=>1), [tid:0] [sn:60133].
44278000: system.cpu.iew: [iew_impl.h] Speculative load 44278000: system.cpu.iew: PC (0x401380=>0x401383).(0=>1), [tid:0] [sn:60139].
44278000: system.cpu.iew: [iew_impl.h] Speculative load 44278000: system.cpu.iew: PC (0x40138c=>0x401390).(1=>2), [tid:0] [sn:60144].
44279000: system.cpu.commit: [commit_impl.hh] Committing 44279000: system.cpu.commit: PC (0x401380=>0x401383).(0=>1), [tid:0] [sn:60125].
44279000: system.cpu.commit: [commit_impl.hh] Committing 44279000: system.cpu.commit: PC (0x40138c=>0x401390).(1=>2), [tid:0] [sn:60130].
44281000: system.cpu.commit: [commit_impl.hh] Committing 44281000: system.cpu.commit: PC (0x401390=>0x401393).(0=>1), [tid:0] [sn:60133].
44282000: system.cpu.iew: [iew_impl.h] Speculative load 44282000: system.cpu.iew: PC (0x401390=>0x401393).(0=>1), [tid:0] [sn:60147].
44282000: system.cpu.iew: [iew_impl.h] Speculative load 44282000: system.cpu.iew: PC (0x401380=>0x401383).(0=>1), [tid:0] [sn:60153].
44282000: system.cpu.iew: [iew_impl.h] Speculative load 44282000: system.cpu.iew: PC (0x40138c=>0x401390).(1=>2), [tid:0] [sn:60158].
44283000: system.cpu.commit: [commit_impl.hh] Committing 44283000: system.cpu.commit: PC (0x401380=>0x401383).(0=>1), [tid:0] [sn:60139].
44283000: system.cpu.commit: [commit_impl.hh] Committing 44283000: system.cpu.commit: PC (0x40138c=>0x401390).(1=>2), [tid:0] [sn:60144].
44285000: system.cpu.commit: [commit_impl.hh] Committing 44285000: system.cpu.commit: PC (0x401390=>0x401393).(0=>1), [tid:0] [sn:60147].
44286000: system.cpu.iew: [iew_impl.h] Speculative load 44286000: system.cpu.iew: PC (0x401390=>0x401393).(0=>1), [tid:0] [sn:60161].
44286000: system.cpu.iew: [iew_impl.h] Speculative load 44286000: system.cpu.iew: PC (0x401380=>0x401383).(0=>1), [tid:0] [sn:60167].
44286000: system.cpu.iew: [iew_impl.h] Speculative load 44286000: system.cpu.iew: PC (0x40138c=>0x401390).(1=>2), [tid:0] [sn:60172].
44287000: system.cpu.commit: [commit_impl.hh] Committing 44287000: system.cpu.commit: PC (0x401380=>0x401383).(0=>1), [tid:0] [sn:60153].
44287000: system.cpu.commit: [commit_impl.hh] Committing 44287000: system.cpu.commit: PC (0x40138c=>0x401390).(1=>2), [tid:0] [sn:60158].
44289000: system.cpu.commit: [commit_impl.hh] Committing 44289000: system.cpu.commit: PC (0x401390=>0x401393).(0=>1), [tid:0] [sn:60161].
44290000: system.cpu.iew: [iew_impl.h] Speculative load 44290000: system.cpu.iew: PC (0x401390=>0x401393).(0=>1), [tid:0] [sn:60175].
44290000: system.cpu.iew: [iew_impl.h] Speculative load 44290000: system.cpu.iew: PC (0x401380=>0x401383).(0=>1), [tid:0] [sn:60181].
44290000: system.cpu.iew: [iew_impl.h] Speculative load 44290000: system.cpu.iew: PC (0x40138c=>0x401390).(1=>2), [tid:0] [sn:60186].
44291000: system.cpu.commit: [commit_impl.hh] Committing 44291000: system.cpu.commit: PC (0x401380=>0x401383).(0=>1), [tid:0] [sn:60167].
44291000: system.cpu.commit: [commit_impl.hh] Committing 44291000: system.cpu.commit: PC (0x40138c=>0x401390).(1=>2), [tid:0] [sn:60172].
44293000: system.cpu.commit: [commit_impl.hh] Committing 44293000: system.cpu.commit: PC (0x401390=>0x401393).(0=>1), [tid:0] [sn:60175].
44294000: system.cpu.iew: [iew_impl.h] Speculative load 44294000: system.cpu.iew: PC (0x401390=>0x401393).(0=>1), [tid:0] [sn:60189].
44294000: system.cpu.iew: [iew_impl.h] Speculative load 44294000: system.cpu.iew: PC (0x401380=>0x401383).(0=>1), [tid:0] [sn:60195].
44294000: system.cpu.iew: [iew_impl.h] Speculative load 44294000: system.cpu.iew: PC (0x40138c=>0x401390).(1=>2), [tid:0] [sn:60200].
44295000: system.cpu.commit: [commit_impl.hh] Committing 44295000: system.cpu.commit: PC (0x401380=>0x401383).(0=>1), [tid:0] [sn:60181].
44295000: system.cpu.commit: [commit_impl.hh] Committing 44295000: system.cpu.commit: PC (0x40138c=>0x401390).(1=>2), [tid:0] [sn:60186].
44297000: system.cpu.commit: [commit_impl.hh] Committing 44297000: system.cpu.commit: PC (0x401390=>0x401393).(0=>1), [tid:0] [sn:60189].
44298000: system.cpu.iew: [iew_impl.h] Speculative load 44298000: system.cpu.iew: PC (0x401390=>0x401393).(0=>1), [tid:0] [sn:60203].
44298000: system.cpu.iew: [iew_impl.h] Speculative load 44298000: system.cpu.iew: PC (0x401380=>0x401383).(0=>1), [tid:0] [sn:60209].
44298000: system.cpu.iew: [iew_impl.h] Speculative load 44298000: system.cpu.iew: PC (0x40138c=>0x401390).(1=>2), [tid:0] [sn:60214].
44299000: system.cpu.commit: [commit_impl.hh] Committing 44299000: system.cpu.commit: PC (0x401380=>0x401383).(0=>1), [tid:0] [sn:60195].
44299000: system.cpu.commit: [commit_impl.hh] Committing 44299000: system.cpu.commit: PC (0x40138c=>0x401390).(1=>2), [tid:0] [sn:60200].
44301000: system.cpu.commit: [commit_impl.hh] Committing 44301000: system.cpu.commit: PC (0x401390=>0x401393).(0=>1), [tid:0] [sn:60203].
44302000: system.cpu.iew: [iew_impl.h] Speculative load 44302000: system.cpu.iew: PC (0x401390=>0x401393).(0=>1), [tid:0] [sn:60217].
44302000: system.cpu.iew: [iew_impl.h] Speculative load 44302000: system.cpu.iew: PC (0x401380=>0x401383).(0=>1), [tid:0] [sn:60223].
44302000: system.cpu.iew: [iew_impl.h] Speculative load 44302000: system.cpu.iew: PC (0x40138c=>0x401390).(1=>2), [tid:0] [sn:60228].
44303000: system.cpu.commit: [commit_impl.hh] Committing 44303000: system.cpu.commit: PC (0x401380=>0x401383).(0=>1), [tid:0] [sn:60209].
44303000: system.cpu.commit: [commit_impl.hh] Committing 44303000: system.cpu.commit: PC (0x40138c=>0x401390).(1=>2), [tid:0] [sn:60214].
44305000: system.cpu.commit: [commit_impl.hh] Committing 44305000: system.cpu.commit: PC (0x401390=>0x401393).(0=>1), [tid:0] [sn:60217].
44306000: system.cpu.iew: [iew_impl.h] Speculative load 44306000: system.cpu.iew: PC (0x401390=>0x401393).(0=>1), [tid:0] [sn:60231].
44306000: system.cpu.iew: [iew_impl.h] Speculative load 44306000: system.cpu.iew: PC (0x401380=>0x401383).(0=>1), [tid:0] [sn:60237].
44306000: system.cpu.iew: [iew_impl.h] Speculative load 44306000: system.cpu.iew: PC (0x40138c=>0x401390).(1=>2), [tid:0] [sn:60242].
44307000: system.cpu.commit: [commit_impl.hh] Committing 44307000: system.cpu.commit: PC (0x401380=>0x401383).(0=>1), [tid:0] [sn:60223].
44307000: system.cpu.commit: [commit_impl.hh] Committing 44307000: system.cpu.commit: PC (0x40138c=>0x401390).(1=>2), [tid:0] [sn:60228].
44309000: system.cpu.commit: [commit_impl.hh] Committing 44309000: system.cpu.commit: PC (0x401390=>0x401393).(0=>1), [tid:0] [sn:60231].
44310000: system.cpu.iew: [iew_impl.h] Speculative load 44310000: system.cpu.iew: PC (0x401390=>0x401393).(0=>1), [tid:0] [sn:60245].
44310000: system.cpu.iew: [iew_impl.h] Speculative load 44310000: system.cpu.iew: PC (0x401380=>0x401383).(0=>1), [tid:0] [sn:60251].
44310000: system.cpu.iew: [iew_impl.h] Speculative load 44310000: system.cpu.iew: PC (0x40138c=>0x401390).(1=>2), [tid:0] [sn:60256].
44311000: system.cpu.commit: [commit_impl.hh] Committing 44311000: system.cpu.commit: PC (0x401380=>0x401383).(0=>1), [tid:0] [sn:60237].
44311000: system.cpu.commit: [commit_impl.hh] Committing 44311000: system.cpu.commit: PC (0x40138c=>0x401390).(1=>2), [tid:0] [sn:60242].
44313000: system.cpu.commit: [commit_impl.hh] Committing 44313000: system.cpu.commit: PC (0x401390=>0x401393).(0=>1), [tid:0] [sn:60245].
44314000: system.cpu.iew: [iew_impl.h] Speculative load 44314000: system.cpu.iew: PC (0x401390=>0x401393).(0=>1), [tid:0] [sn:60259].
44314000: system.cpu.iew: [iew_impl.h] Speculative load 44314000: system.cpu.iew: PC (0x401380=>0x401383).(0=>1), [tid:0] [sn:60265].
44314000: system.cpu.iew: [iew_impl.h] Speculative load 44314000: system.cpu.iew: PC (0x40138c=>0x401390).(1=>2), [tid:0] [sn:60270].
44315000: system.cpu.commit: [commit_impl.hh] Committing 44315000: system.cpu.commit: PC (0x401380=>0x401383).(0=>1), [tid:0] [sn:60251].
44315000: system.cpu.commit: [commit_impl.hh] Committing 44315000: system.cpu.commit: PC (0x40138c=>0x401390).(1=>2), [tid:0] [sn:60256].
44317000: system.cpu.commit: [commit_impl.hh] Committing 44317000: system.cpu.commit: PC (0x401390=>0x401393).(0=>1), [tid:0] [sn:60259].
44318000: system.cpu.iew: [iew_impl.h] Speculative load 44318000: system.cpu.iew: PC (0x401390=>0x401393).(0=>1), [tid:0] [sn:60273].
44318000: system.cpu.iew: [iew_impl.h] Speculative load 44318000: system.cpu.iew: PC (0x401380=>0x401383).(0=>1), [tid:0] [sn:60279].
44318000: system.cpu.iew: [iew_impl.h] Speculative load 44318000: system.cpu.iew: PC (0x40138c=>0x401390).(1=>2), [tid:0] [sn:60284].
44319000: system.cpu.commit: [commit_impl.hh] Committing 44319000: system.cpu.commit: PC (0x401380=>0x401383).(0=>1), [tid:0] [sn:60265].
44319000: system.cpu.commit: [commit_impl.hh] Committing 44319000: system.cpu.commit: PC (0x40138c=>0x401390).(1=>2), [tid:0] [sn:60270].
44321000: system.cpu.commit: [commit_impl.hh] Committing 44321000: system.cpu.commit: PC (0x401390=>0x401393).(0=>1), [tid:0] [sn:60273].
44322000: system.cpu.iew: [iew_impl.h] Speculative load 44322000: system.cpu.iew: PC (0x401390=>0x401393).(0=>1), [tid:0] [sn:60287].
44322000: system.cpu.iew: [iew_impl.h] Speculative load 44322000: system.cpu.iew: PC (0x401380=>0x401383).(0=>1), [tid:0] [sn:60293].
44322000: system.cpu.iew: [iew_impl.h] Speculative load 44322000: system.cpu.iew: PC (0x40138c=>0x401390).(1=>2), [tid:0] [sn:60298].
44323000: system.cpu.commit: [commit_impl.hh] Committing 44323000: system.cpu.commit: PC (0x401380=>0x401383).(0=>1), [tid:0] [sn:60279].
44323000: system.cpu.commit: [commit_impl.hh] Committing 44323000: system.cpu.commit: PC (0x40138c=>0x401390).(1=>2), [tid:0] [sn:60284].
44325000: system.cpu.commit: [commit_impl.hh] Committing 44325000: system.cpu.commit: PC (0x401390=>0x401393).(0=>1), [tid:0] [sn:60287].
44326000: system.cpu.iew: [iew_impl.h] Speculative load 44326000: system.cpu.iew: PC (0x401390=>0x401393).(0=>1), [tid:0] [sn:60301].
44326000: system.cpu.iew: [iew_impl.h] Speculative load 44326000: system.cpu.iew: PC (0x401380=>0x401383).(0=>1), [tid:0] [sn:60307].
44326000: system.cpu.iew: [iew_impl.h] Speculative load 44326000: system.cpu.iew: PC (0x40138c=>0x401390).(1=>2), [tid:0] [sn:60312].
44327000: system.cpu.commit: [commit_impl.hh] Committing 44327000: system.cpu.commit: PC (0x401380=>0x401383).(0=>1), [tid:0] [sn:60293].
44327000: system.cpu.commit: [commit_impl.hh] Committing 44327000: system.cpu.commit: PC (0x40138c=>0x401390).(1=>2), [tid:0] [sn:60298].
44329000: system.cpu.commit: [commit_impl.hh] Committing 44329000: system.cpu.commit: PC (0x401390=>0x401393).(0=>1), [tid:0] [sn:60301].
44330000: system.cpu.iew: [iew_impl.h] Speculative load 44330000: system.cpu.iew: PC (0x401390=>0x401393).(0=>1), [tid:0] [sn:60315].
44330000: system.cpu.iew: [iew_impl.h] Speculative load 44330000: system.cpu.iew: PC (0x401380=>0x401383).(0=>1), [tid:0] [sn:60321].
44330000: system.cpu.iew: [iew_impl.h] Speculative load 44330000: system.cpu.iew: PC (0x40138c=>0x401390).(1=>2), [tid:0] [sn:60326].
44331000: system.cpu.commit: [commit_impl.hh] Committing 44331000: system.cpu.commit: PC (0x401380=>0x401383).(0=>1), [tid:0] [sn:60307].
44331000: system.cpu.commit: [commit_impl.hh] Committing 44331000: system.cpu.commit: PC (0x40138c=>0x401390).(1=>2), [tid:0] [sn:60312].
44333000: system.cpu.commit: [commit_impl.hh] Committing 44333000: system.cpu.commit: PC (0x401390=>0x401393).(0=>1), [tid:0] [sn:60315].
44334000: system.cpu.iew: [iew_impl.h] Speculative load 44334000: system.cpu.iew: PC (0x401390=>0x401393).(0=>1), [tid:0] [sn:60329].
44334000: system.cpu.iew: [iew_impl.h] Speculative load 44334000: system.cpu.iew: PC (0x401380=>0x401383).(0=>1), [tid:0] [sn:60335].
44334000: system.cpu.iew: [iew_impl.h] Speculative load 44334000: system.cpu.iew: PC (0x40138c=>0x401390).(1=>2), [tid:0] [sn:60340].
44335000: system.cpu.commit: [commit_impl.hh] Committing 44335000: system.cpu.commit: PC (0x401380=>0x401383).(0=>1), [tid:0] [sn:60321].
44335000: system.cpu.commit: [commit_impl.hh] Committing 44335000: system.cpu.commit: PC (0x40138c=>0x401390).(1=>2), [tid:0] [sn:60326].
44337000: system.cpu.commit: [commit_impl.hh] Committing 44337000: system.cpu.commit: PC (0x401390=>0x401393).(0=>1), [tid:0] [sn:60329].
44338000: system.cpu.iew: [iew_impl.h] Speculative load 44338000: system.cpu.iew: PC (0x401390=>0x401393).(0=>1), [tid:0] [sn:60343].
44338000: system.cpu.iew: [iew_impl.h] Speculative load 44338000: system.cpu.iew: PC (0x401380=>0x401383).(0=>1), [tid:0] [sn:60349].
44338000: system.cpu.iew: [iew_impl.h] Speculative load 44338000: system.cpu.iew: PC (0x40138c=>0x401390).(1=>2), [tid:0] [sn:60354].
44339000: system.cpu.commit: [commit_impl.hh] Committing 44339000: system.cpu.commit: PC (0x401380=>0x401383).(0=>1), [tid:0] [sn:60335].
44339000: system.cpu.commit: [commit_impl.hh] Committing 44339000: system.cpu.commit: PC (0x40138c=>0x401390).(1=>2), [tid:0] [sn:60340].
44341000: system.cpu.commit: [commit_impl.hh] Committing 44341000: system.cpu.commit: PC (0x401390=>0x401393).(0=>1), [tid:0] [sn:60343].
44342000: system.cpu.iew: [iew_impl.h] Speculative load 44342000: system.cpu.iew: PC (0x401390=>0x401393).(0=>1), [tid:0] [sn:60357].
44342000: system.cpu.iew: [iew_impl.h] Speculative load 44342000: system.cpu.iew: PC (0x401380=>0x401383).(0=>1), [tid:0] [sn:60363].
44342000: system.cpu.iew: [iew_impl.h] Speculative load 44342000: system.cpu.iew: PC (0x40138c=>0x401390).(1=>2), [tid:0] [sn:60368].
44343000: system.cpu.commit: [commit_impl.hh] Committing 44343000: system.cpu.commit: PC (0x401380=>0x401383).(0=>1), [tid:0] [sn:60349].
44343000: system.cpu.commit: [commit_impl.hh] Committing 44343000: system.cpu.commit: PC (0x40138c=>0x401390).(1=>2), [tid:0] [sn:60354].
44345000: system.cpu.commit: [commit_impl.hh] Committing 44345000: system.cpu.commit: PC (0x401390=>0x401393).(0=>1), [tid:0] [sn:60357].
44346000: system.cpu.iew: [iew_impl.h] Speculative load 44346000: system.cpu.iew: PC (0x401390=>0x401393).(0=>1), [tid:0] [sn:60371].
44346000: system.cpu.iew: [iew_impl.h] Speculative load 44346000: system.cpu.iew: PC (0x401380=>0x401383).(0=>1), [tid:0] [sn:60377].
44346000: system.cpu.iew: [iew_impl.h] Speculative load 44346000: system.cpu.iew: PC (0x40138c=>0x401390).(1=>2), [tid:0] [sn:60382].
44347000: system.cpu.commit: [commit_impl.hh] Committing 44347000: system.cpu.commit: PC (0x401380=>0x401383).(0=>1), [tid:0] [sn:60363].
44347000: system.cpu.commit: [commit_impl.hh] Committing 44347000: system.cpu.commit: PC (0x40138c=>0x401390).(1=>2), [tid:0] [sn:60368].
44349000: system.cpu.commit: [commit_impl.hh] Committing 44349000: system.cpu.commit: PC (0x401390=>0x401393).(0=>1), [tid:0] [sn:60371].
44350000: system.cpu.iew: [iew_impl.h] Speculative load 44350000: system.cpu.iew: PC (0x401390=>0x401393).(0=>1), [tid:0] [sn:60385].
44350000: system.cpu.iew: [iew_impl.h] Speculative load 44350000: system.cpu.iew: PC (0x401380=>0x401383).(0=>1), [tid:0] [sn:60391].
44350000: system.cpu.iew: [iew_impl.h] Speculative load 44350000: system.cpu.iew: PC (0x40138c=>0x401390).(1=>2), [tid:0] [sn:60396].
44351000: system.cpu.commit: [commit_impl.hh] Committing 44351000: system.cpu.commit: PC (0x401380=>0x401383).(0=>1), [tid:0] [sn:60377].
44351000: system.cpu.commit: [commit_impl.hh] Committing 44351000: system.cpu.commit: PC (0x40138c=>0x401390).(1=>2), [tid:0] [sn:60382].
44353000: system.cpu.commit: [commit_impl.hh] Committing 44353000: system.cpu.commit: PC (0x401390=>0x401393).(0=>1), [tid:0] [sn:60385].
44354000: system.cpu.iew: [iew_impl.h] Speculative load 44354000: system.cpu.iew: PC (0x401390=>0x401393).(0=>1), [tid:0] [sn:60399].
44354000: system.cpu.iew: [iew_impl.h] Speculative load 44354000: system.cpu.iew: PC (0x401380=>0x401383).(0=>1), [tid:0] [sn:60405].
44354000: system.cpu.iew: [iew_impl.h] Speculative load 44354000: system.cpu.iew: PC (0x40138c=>0x401390).(1=>2), [tid:0] [sn:60410].
44355000: system.cpu.commit: [commit_impl.hh] Committing 44355000: system.cpu.commit: PC (0x401380=>0x401383).(0=>1), [tid:0] [sn:60391].
44355000: system.cpu.commit: [commit_impl.hh] Committing 44355000: system.cpu.commit: PC (0x40138c=>0x401390).(1=>2), [tid:0] [sn:60396].
44357000: system.cpu.commit: [commit_impl.hh] Committing 44357000: system.cpu.commit: PC (0x401390=>0x401393).(0=>1), [tid:0] [sn:60399].
44358000: system.cpu.iew: [iew_impl.h] Speculative load 44358000: system.cpu.iew: PC (0x401390=>0x401393).(0=>1), [tid:0] [sn:60413].
44358000: system.cpu.iew: [iew_impl.h] Speculative load 44358000: system.cpu.iew: PC (0x401380=>0x401383).(0=>1), [tid:0] [sn:60419].
44358000: system.cpu.iew: [iew_impl.h] Speculative load 44358000: system.cpu.iew: PC (0x40138c=>0x401390).(1=>2), [tid:0] [sn:60424].
44359000: system.cpu.commit: [commit_impl.hh] Committing 44359000: system.cpu.commit: PC (0x401380=>0x401383).(0=>1), [tid:0] [sn:60405].
44359000: system.cpu.commit: [commit_impl.hh] Committing 44359000: system.cpu.commit: PC (0x40138c=>0x401390).(1=>2), [tid:0] [sn:60410].
44361000: system.cpu.commit: [commit_impl.hh] Committing 44361000: system.cpu.commit: PC (0x401390=>0x401393).(0=>1), [tid:0] [sn:60413].
44362000: system.cpu.iew: [iew_impl.h] Speculative load 44362000: system.cpu.iew: PC (0x401390=>0x401393).(0=>1), [tid:0] [sn:60427].
44362000: system.cpu.iew: [iew_impl.h] Speculative load 44362000: system.cpu.iew: PC (0x401380=>0x401383).(0=>1), [tid:0] [sn:60433].
44362000: system.cpu.iew: [iew_impl.h] Speculative load 44362000: system.cpu.iew: PC (0x40138c=>0x401390).(1=>2), [tid:0] [sn:60438].
44363000: system.cpu.commit: [commit_impl.hh] Committing 44363000: system.cpu.commit: PC (0x401380=>0x401383).(0=>1), [tid:0] [sn:60419].
44363000: system.cpu.commit: [commit_impl.hh] Committing 44363000: system.cpu.commit: PC (0x40138c=>0x401390).(1=>2), [tid:0] [sn:60424].
44365000: system.cpu.commit: [commit_impl.hh] Committing 44365000: system.cpu.commit: PC (0x401390=>0x401393).(0=>1), [tid:0] [sn:60427].
44366000: system.cpu.iew: [iew_impl.h] Speculative load 44366000: system.cpu.iew: PC (0x401390=>0x401393).(0=>1), [tid:0] [sn:60441].
44366000: system.cpu.iew: [iew_impl.h] Speculative load 44366000: system.cpu.iew: PC (0x401380=>0x401383).(0=>1), [tid:0] [sn:60447].
